<routes>
                <vType accel="1.0" decel="4.5" id="standard_car" length="5.0" minGap="2.5" maxSpeed="25" sigma="0.5" />

                <route id="W_N" edges="E3 -E5"/>
                <route id="W_E" edges="E3 -E4"/>
                <route id="W_S" edges="E3 -E6"/>
                <route id="N_W" edges="E5 -E3"/>
                <route id="N_E" edges="E5 -E4"/>
                <route id="N_S" edges="E5 -E6"/>
                <route id="E_W" edges="E4 -E3"/>
                <route id="E_N" edges="E4 -E5"/>
                <route id="E_S" edges="E4 -E6"/>
                <route id="S_W" edges="E6 -E3"/>
                <route id="S_N" edges="E6 -E5"/>
                <route id="S_E" edges="E6 -E4"/>
    <vehicle id="N_W_0" type="standard_car" route="N_W" depart="83.0" departLane="random" departSpeed="10" />
    <vehicle id="W_E_1" type="standard_car" route="W_E" depart="93.0" departLane="random" departSpeed="10" />
    <vehicle id="S_N_2" type="standard_car" route="S_N" depart="230.0" departLane="random" departSpeed="10" />
    <vehicle id="N_S_3" type="standard_car" route="N_S" depart="237.0" departLane="random" departSpeed="10" />
    <vehicle id="W_E_4" type="standard_car" route="W_E" depart="244.0" departLane="random" departSpeed="10" />
    <vehicle id="S_N_5" type="standard_car" route="S_N" depart="321.0" departLane="random" departSpeed="10" />
    <vehicle id="N_S_6" type="standard_car" route="N_S" depart="321.0" departLane="random" departSpeed="10" />
    <vehicle id="N_S_7" type="standard_car" route="N_S" depart="330.0" departLane="random" departSpeed="10" />
    <vehicle id="N_S_8" type="standard_car" route="N_S" depart="331.0" departLane="random" departSpeed="10" />
    <vehicle id="E_W_9" type="standard_car" route="E_W" depart="348.0" departLane="random" departSpeed="10" />
    <vehicle id="E_W_10" type="standard_car" route="E_W" depart="354.0" departLane="random" departSpeed="10" />
    <vehicle id="S_N_11" type="standard_car" route="S_N" depart="357.0" departLane="random" departSpeed="10" />
    <vehicle id="S_E_12" type="standard_car" route="S_E" depart="360.0" departLane="random" departSpeed="10" />
    <vehicle id="W_E_13" type="standard_car" route="W_E" depart="371.0" departLane="random" departSpeed="10" />
    <vehicle id="N_S_14" type="standard_car" route="N_S" depart="376.0" departLane="random" departSpeed="10" />
    <vehicle id="E_W_15" type="standard_car" route="E_W" depart="379.0" departLane="random" departSpeed="10" />
    <vehicle id="S_N_16" type="standard_car" route="S_N" depart="380.0" departLane="random" departSpeed="10" />
    <vehicle id="S_N_17" type="standard_car" route="S_N" depart="380.0" departLane="random" departSpeed="10" />
    <vehicle id="N_S_18" type="standard_car" route="N_S" depart="396.0" departLane="random" departSpeed="10" />
    <vehicle id="S_N_19" type="standard_car" route="S_N" depart="411.0" departLane="random" departSpeed="10" />
    <vehicle id="W_E_20" type="standard_car" route="W_E" depart="412.0" departLane="random" departSpeed="10" />
    <vehicle id="N_S_21" type="standard_car" route="N_S" depart="414.0" departLane="random" departSpeed="10" />
    <vehicle id="W_E_22" type="standard_car" route="W_E" depart="426.0" departLane="random" departSpeed="10" />
    <vehicle id="E_W_23" type="standard_car" route="E_W" depart="430.0" departLane="random" departSpeed="10" />
    <vehicle id="N_S_24" type="standard_car" route="N_S" depart="436.0" departLane="random" departSpeed="10" />
    <vehicle id="N_S_25" type="standard_car" route="N_S" depart="441.0" departLane="random" departSpeed="10" />
    <vehicle id="E_S_26" type="standard_car" route="E_S" depart="442.0" departLane="random" departSpeed="10" />
    <vehicle id="W_S_27" type="standard_car" route="W_S" depart="446.0" departLane="random" departSpeed="10" />
    <vehicle id="N_S_28" type="standard_car" route="N_S" depart="447.0" departLane="random" departSpeed="10" />
    <vehicle id="N_S_29" type="standard_car" route="N_S" depart="448.0" departLane="random" departSpeed="10" />
    <vehicle id="S_E_30" type="standard_car" route="S_E" depart="453.0" departLane="random" departSpeed="10" />
    <vehicle id="N_S_31" type="standard_car" route="N_S" depart="453.0" departLane="random" departSpeed="10" />
    <vehicle id="S_N_32" type="standard_car" route="S_N" depart="458.0" departLane="random" departSpeed="10" />
    <vehicle id="E_S_33" type="standard_car" route="E_S" depart="459.0" departLane="random" departSpeed="10" />
    <vehicle id="W_E_34" type="standard_car" route="W_E" depart="465.0" departLane="random" departSpeed="10" />
    <vehicle id="W_E_35" type="standard_car" route="W_E" depart="469.0" departLane="random" departSpeed="10" />
    <vehicle id="N_S_36" type="standard_car" route="N_S" depart="477.0" departLane="random" departSpeed="10" />
    <vehicle id="N_S_37" type="standard_car" route="N_S" depart="479.0" departLane="random" departSpeed="10" />
    <vehicle id="S_N_38" type="standard_car" route="S_N" depart="484.0" departLane="random" departSpeed="10" />
    <vehicle id="E_W_39" type="standard_car" route="E_W" depart="484.0" departLane="random" departSpeed="10" />
    <vehicle id="E_W_40" type="standard_car" route="E_W" depart="491.0" departLane="random" departSpeed="10" />
    <vehicle id="S_W_41" type="standard_car" route="S_W" depart="492.0" departLane="random" departSpeed="10" />
    <vehicle id="N_S_42" type="standard_car" route="N_S" depart="494.0" departLane="random" departSpeed="10" />
    <vehicle id="E_W_43" type="standard_car" route="E_W" depart="497.0" departLane="random" departSpeed="10" />
    <vehicle id="E_W_44" type="standard_car" route="E_W" depart="497.0" departLane="random" departSpeed="10" />
    <vehicle id="E_W_45" type="standard_car" route="E_W" depart="502.0" departLane="random" departSpeed="10" />
    <vehicle id="E_N_46" type="standard_car" route="E_N" depart="503.0" departLane="random" departSpeed="10" />
    <vehicle id="E_W_47" type="standard_car" route="E_W" depart="504.0" departLane="random" departSpeed="10" />
    <vehicle id="E_W_48" type="standard_car" route="E_W" depart="508.0" departLane="random" departSpeed="10" />
    <vehicle id="E_W_49" type="standard_car" route="E_W" depart="511.0" departLane="random" departSpeed="10" />
    <vehicle id="E_W_50" type="standard_car" route="E_W" depart="512.0" departLane="random" departSpeed="10" />
    <vehicle id="E_W_51" type="standard_car" route="E_W" depart="519.0" departLane="random" departSpeed="10" />
    <vehicle id="W_E_52" type="standard_car" route="W_E" depart="520.0" departLane="random" departSpeed="10" />
    <vehicle id="S_E_53" type="standard_car" route="S_E" depart="520.0" departLane="random" departSpeed="10" />
    <vehicle id="N_S_54" type="standard_car" route="N_S" depart="523.0" departLane="random" departSpeed="10" />
    <vehicle id="N_S_55" type="standard_car" route="N_S" depart="526.0" departLane="random" departSpeed="10" />
    <vehicle id="E_N_56" type="standard_car" route="E_N" depart="527.0" departLane="random" departSpeed="10" />
    <vehicle id="S_N_57" type="standard_car" route="S_N" depart="529.0" departLane="random" departSpeed="10" />
    <vehicle id="E_W_58" type="standard_car" route="E_W" depart="530.0" departLane="random" departSpeed="10" />
    <vehicle id="N_S_59" type="standard_car" route="N_S" depart="535.0" departLane="random" departSpeed="10" />
    <vehicle id="W_E_60" type="standard_car" route="W_E" depart="536.0" departLane="random" departSpeed="10" />
    <vehicle id="E_W_61" type="standard_car" route="E_W" depart="536.0" departLane="random" departSpeed="10" />
    <vehicle id="W_E_62" type="standard_car" route="W_E" depart="537.0" departLane="random" departSpeed="10" />
    <vehicle id="S_N_63" type="standard_car" route="S_N" depart="542.0" departLane="random" departSpeed="10" />
    <vehicle id="W_E_64" type="standard_car" route="W_E" depart="542.0" departLane="random" departSpeed="10" />
    <vehicle id="S_W_65" type="standard_car" route="S_W" depart="543.0" departLane="random" departSpeed="10" />
    <vehicle id="S_N_66" type="standard_car" route="S_N" depart="544.0" departLane="random" departSpeed="10" />
    <vehicle id="W_N_67" type="standard_car" route="W_N" depart="546.0" departLane="random" departSpeed="10" />
    <vehicle id="S_N_68" type="standard_car" route="S_N" depart="548.0" departLane="random" departSpeed="10" />
    <vehicle id="E_W_69" type="standard_car" route="E_W" depart="548.0" departLane="random" departSpeed="10" />
    <vehicle id="W_E_70" type="standard_car" route="W_E" depart="548.0" departLane="random" departSpeed="10" />
    <vehicle id="S_N_71" type="standard_car" route="S_N" depart="551.0" departLane="random" departSpeed="10" />
    <vehicle id="N_S_72" type="standard_car" route="N_S" depart="551.0" departLane="random" departSpeed="10" />
    <vehicle id="E_W_73" type="standard_car" route="E_W" depart="552.0" departLane="random" departSpeed="10" />
    <vehicle id="W_N_74" type="standard_car" route="W_N" depart="552.0" departLane="random" departSpeed="10" />
    <vehicle id="E_W_75" type="standard_car" route="E_W" depart="554.0" departLane="random" departSpeed="10" />
    <vehicle id="E_W_76" type="standard_car" route="E_W" depart="555.0" departLane="random" departSpeed="10" />
    <vehicle id="E_N_77" type="standard_car" route="E_N" depart="557.0" departLane="random" departSpeed="10" />
    <vehicle id="N_S_78" type="standard_car" route="N_S" depart="559.0" departLane="random" departSpeed="10" />
    <vehicle id="W_E_79" type="standard_car" route="W_E" depart="559.0" departLane="random" departSpeed="10" />
    <vehicle id="W_E_80" type="standard_car" route="W_E" depart="561.0" departLane="random" departSpeed="10" />
    <vehicle id="N_W_81" type="standard_car" route="N_W" depart="564.0" departLane="random" departSpeed="10" />
    <vehicle id="S_W_82" type="standard_car" route="S_W" depart="572.0" departLane="random" departSpeed="10" />
    <vehicle id="W_E_83" type="standard_car" route="W_E" depart="578.0" departLane="random" departSpeed="10" />
    <vehicle id="N_W_84" type="standard_car" route="N_W" depart="579.0" departLane="random" departSpeed="10" />
    <vehicle id="E_W_85" type="standard_car" route="E_W" depart="580.0" departLane="random" departSpeed="10" />
    <vehicle id="N_S_86" type="standard_car" route="N_S" depart="580.0" departLane="random" departSpeed="10" />
    <vehicle id="W_E_87" type="standard_car" route="W_E" depart="581.0" departLane="random" departSpeed="10" />
    <vehicle id="N_W_88" type="standard_car" route="N_W" depart="582.0" departLane="random" departSpeed="10" />
    <vehicle id="E_W_89" type="standard_car" route="E_W" depart="584.0" departLane="random" departSpeed="10" />
    <vehicle id="N_S_90" type="standard_car" route="N_S" depart="588.0" departLane="random" departSpeed="10" />
    <vehicle id="S_N_91" type="standard_car" route="S_N" depart="591.0" departLane="random" departSpeed="10" />
    <vehicle id="W_E_92" type="standard_car" route="W_E" depart="593.0" departLane="random" departSpeed="10" />
    <vehicle id="N_W_93" type="standard_car" route="N_W" depart="594.0" departLane="random" departSpeed="10" />
    <vehicle id="E_W_94" type="standard_car" route="E_W" depart="595.0" departLane="random" departSpeed="10" />
    <vehicle id="S_N_95" type="standard_car" route="S_N" depart="595.0" departLane="random" departSpeed="10" />
    <vehicle id="E_W_96" type="standard_car" route="E_W" depart="598.0" departLane="random" departSpeed="10" />
    <vehicle id="N_S_97" type="standard_car" route="N_S" depart="602.0" departLane="random" departSpeed="10" />
    <vehicle id="E_W_98" type="standard_car" route="E_W" depart="605.0" departLane="random" departSpeed="10" />
    <vehicle id="N_S_99" type="standard_car" route="N_S" depart="606.0" departLane="random" departSpeed="10" />
    <vehicle id="S_N_100" type="standard_car" route="S_N" depart="606.0" departLane="random" departSpeed="10" />
    <vehicle id="N_S_101" type="standard_car" route="N_S" depart="610.0" departLane="random" departSpeed="10" />
    <vehicle id="W_E_102" type="standard_car" route="W_E" depart="612.0" departLane="random" departSpeed="10" />
    <vehicle id="N_S_103" type="standard_car" route="N_S" depart="613.0" departLane="random" departSpeed="10" />
    <vehicle id="S_N_104" type="standard_car" route="S_N" depart="614.0" departLane="random" departSpeed="10" />
    <vehicle id="E_W_105" type="standard_car" route="E_W" depart="615.0" departLane="random" departSpeed="10" />
    <vehicle id="S_N_106" type="standard_car" route="S_N" depart="616.0" departLane="random" departSpeed="10" />
    <vehicle id="E_W_107" type="standard_car" route="E_W" depart="617.0" departLane="random" departSpeed="10" />
    <vehicle id="W_N_108" type="standard_car" route="W_N" depart="619.0" departLane="random" departSpeed="10" />
    <vehicle id="W_E_109" type="standard_car" route="W_E" depart="619.0" departLane="random" departSpeed="10" />
    <vehicle id="N_E_110" type="standard_car" route="N_E" depart="620.0" departLane="random" departSpeed="10" />
    <vehicle id="E_S_111" type="standard_car" route="E_S" depart="621.0" departLane="random" departSpeed="10" />
    <vehicle id="E_W_112" type="standard_car" route="E_W" depart="628.0" departLane="random" departSpeed="10" />
    <vehicle id="E_W_113" type="standard_car" route="E_W" depart="630.0" departLane="random" departSpeed="10" />
    <vehicle id="W_N_114" type="standard_car" route="W_N" depart="630.0" departLane="random" departSpeed="10" />
    <vehicle id="E_W_115" type="standard_car" route="E_W" depart="633.0" departLane="random" departSpeed="10" />
    <vehicle id="E_W_116" type="standard_car" route="E_W" depart="634.0" departLane="random" departSpeed="10" />
    <vehicle id="S_N_117" type="standard_car" route="S_N" depart="635.0" departLane="random" departSpeed="10" />
    <vehicle id="W_E_118" type="standard_car" route="W_E" depart="636.0" departLane="random" departSpeed="10" />
    <vehicle id="N_S_119" type="standard_car" route="N_S" depart="639.0" departLane="random" departSpeed="10" />
    <vehicle id="N_W_120" type="standard_car" route="N_W" depart="639.0" departLane="random" departSpeed="10" />
    <vehicle id="E_W_121" type="standard_car" route="E_W" depart="639.0" departLane="random" departSpeed="10" />
    <vehicle id="E_W_122" type="standard_car" route="E_W" depart="640.0" departLane="random" departSpeed="10" />
    <vehicle id="E_W_123" type="standard_car" route="E_W" depart="644.0" departLane="random" departSpeed="10" />
    <vehicle id="E_N_124" type="standard_car" route="E_N" depart="644.0" departLane="random" departSpeed="10" />
    <vehicle id="S_E_125" type="standard_car" route="S_E" depart="648.0" departLane="random" departSpeed="10" />
    <vehicle id="E_W_126" type="standard_car" route="E_W" depart="648.0" departLane="random" departSpeed="10" />
    <vehicle id="E_W_127" type="standard_car" route="E_W" depart="649.0" departLane="random" departSpeed="10" />
    <vehicle id="E_W_128" type="standard_car" route="E_W" depart="650.0" departLane="random" departSpeed="10" />
    <vehicle id="S_N_129" type="standard_car" route="S_N" depart="652.0" departLane="random" departSpeed="10" />
    <vehicle id="E_W_130" type="standard_car" route="E_W" depart="653.0" departLane="random" departSpeed="10" />
    <vehicle id="N_E_131" type="standard_car" route="N_E" depart="656.0" departLane="random" departSpeed="10" />
    <vehicle id="S_N_132" type="standard_car" route="S_N" depart="656.0" departLane="random" departSpeed="10" />
    <vehicle id="N_S_133" type="standard_car" route="N_S" depart="657.0" departLane="random" departSpeed="10" />
    <vehicle id="E_W_134" type="standard_car" route="E_W" depart="657.0" departLane="random" departSpeed="10" />
    <vehicle id="N_S_135" type="standard_car" route="N_S" depart="659.0" departLane="random" departSpeed="10" />
    <vehicle id="E_W_136" type="standard_car" route="E_W" depart="660.0" departLane="random" departSpeed="10" />
    <vehicle id="N_S_137" type="standard_car" route="N_S" depart="662.0" departLane="random" departSpeed="10" />
    <vehicle id="N_S_138" type="standard_car" route="N_S" depart="663.0" departLane="random" departSpeed="10" />
    <vehicle id="W_N_139" type="standard_car" route="W_N" depart="667.0" departLane="random" departSpeed="10" />
    <vehicle id="W_E_140" type="standard_car" route="W_E" depart="670.0" departLane="random" departSpeed="10" />
    <vehicle id="W_S_141" type="standard_car" route="W_S" depart="672.0" departLane="random" departSpeed="10" />
    <vehicle id="W_E_142" type="standard_car" route="W_E" depart="672.0" departLane="random" departSpeed="10" />
    <vehicle id="E_W_143" type="standard_car" route="E_W" depart="676.0" departLane="random" departSpeed="10" />
    <vehicle id="N_E_144" type="standard_car" route="N_E" depart="677.0" departLane="random" departSpeed="10" />
    <vehicle id="W_E_145" type="standard_car" route="W_E" depart="678.0" departLane="random" departSpeed="10" />
    <vehicle id="N_S_146" type="standard_car" route="N_S" depart="680.0" departLane="random" departSpeed="10" />
    <vehicle id="E_W_147" type="standard_car" route="E_W" depart="682.0" departLane="random" departSpeed="10" />
    <vehicle id="S_N_148" type="standard_car" route="S_N" depart="684.0" departLane="random" departSpeed="10" />
    <vehicle id="S_N_149" type="standard_car" route="S_N" depart="684.0" departLane="random" departSpeed="10" />
    <vehicle id="E_W_150" type="standard_car" route="E_W" depart="685.0" departLane="random" departSpeed="10" />
    <vehicle id="W_E_151" type="standard_car" route="W_E" depart="685.0" departLane="random" departSpeed="10" />
    <vehicle id="S_N_152" type="standard_car" route="S_N" depart="688.0" departLane="random" departSpeed="10" />
    <vehicle id="W_E_153" type="standard_car" route="W_E" depart="690.0" departLane="random" departSpeed="10" />
    <vehicle id="E_S_154" type="standard_car" route="E_S" depart="691.0" departLane="random" departSpeed="10" />
    <vehicle id="N_S_155" type="standard_car" route="N_S" depart="692.0" departLane="random" departSpeed="10" />
    <vehicle id="E_W_156" type="standard_car" route="E_W" depart="694.0" departLane="random" departSpeed="10" />
    <vehicle id="W_N_157" type="standard_car" route="W_N" depart="695.0" departLane="random" departSpeed="10" />
    <vehicle id="S_W_158" type="standard_car" route="S_W" depart="695.0" departLane="random" departSpeed="10" />
    <vehicle id="N_E_159" type="standard_car" route="N_E" depart="695.0" departLane="random" departSpeed="10" />
    <vehicle id="E_W_160" type="standard_car" route="E_W" depart="697.0" departLane="random" departSpeed="10" />
    <vehicle id="S_N_161" type="standard_car" route="S_N" depart="698.0" departLane="random" departSpeed="10" />
    <vehicle id="W_E_162" type="standard_car" route="W_E" depart="700.0" departLane="random" departSpeed="10" />
    <vehicle id="N_S_163" type="standard_car" route="N_S" depart="700.0" departLane="random" departSpeed="10" />
    <vehicle id="W_E_164" type="standard_car" route="W_E" depart="701.0" departLane="random" departSpeed="10" />
    <vehicle id="S_N_165" type="standard_car" route="S_N" depart="701.0" departLane="random" departSpeed="10" />
    <vehicle id="N_S_166" type="standard_car" route="N_S" depart="702.0" departLane="random" departSpeed="10" />
    <vehicle id="W_E_167" type="standard_car" route="W_E" depart="703.0" departLane="random" departSpeed="10" />
    <vehicle id="N_E_168" type="standard_car" route="N_E" depart="705.0" departLane="random" departSpeed="10" />
    <vehicle id="S_N_169" type="standard_car" route="S_N" depart="706.0" departLane="random" departSpeed="10" />
    <vehicle id="S_N_170" type="standard_car" route="S_N" depart="706.0" departLane="random" departSpeed="10" />
    <vehicle id="S_N_171" type="standard_car" route="S_N" depart="707.0" departLane="random" departSpeed="10" />
    <vehicle id="W_S_172" type="standard_car" route="W_S" depart="709.0" departLane="random" departSpeed="10" />
    <vehicle id="N_W_173" type="standard_car" route="N_W" depart="709.0" departLane="random" departSpeed="10" />
    <vehicle id="N_S_174" type="standard_car" route="N_S" depart="710.0" departLane="random" departSpeed="10" />
    <vehicle id="E_W_175" type="standard_car" route="E_W" depart="712.0" departLane="random" departSpeed="10" />
    <vehicle id="N_S_176" type="standard_car" route="N_S" depart="715.0" departLane="random" departSpeed="10" />
    <vehicle id="N_S_177" type="standard_car" route="N_S" depart="719.0" departLane="random" departSpeed="10" />
    <vehicle id="S_N_178" type="standard_car" route="S_N" depart="719.0" departLane="random" departSpeed="10" />
    <vehicle id="W_N_179" type="standard_car" route="W_N" depart="719.0" departLane="random" departSpeed="10" />
    <vehicle id="S_N_180" type="standard_car" route="S_N" depart="722.0" departLane="random" departSpeed="10" />
    <vehicle id="N_S_181" type="standard_car" route="N_S" depart="723.0" departLane="random" departSpeed="10" />
    <vehicle id="E_W_182" type="standard_car" route="E_W" depart="724.0" departLane="random" departSpeed="10" />
    <vehicle id="N_W_183" type="standard_car" route="N_W" depart="726.0" departLane="random" departSpeed="10" />
    <vehicle id="S_N_184" type="standard_car" route="S_N" depart="727.0" departLane="random" departSpeed="10" />
    <vehicle id="N_S_185" type="standard_car" route="N_S" depart="730.0" departLane="random" departSpeed="10" />
    <vehicle id="W_E_186" type="standard_car" route="W_E" depart="731.0" departLane="random" departSpeed="10" />
    <vehicle id="S_N_187" type="standard_car" route="S_N" depart="733.0" departLane="random" departSpeed="10" />
    <vehicle id="N_S_188" type="standard_car" route="N_S" depart="734.0" departLane="random" departSpeed="10" />
    <vehicle id="E_W_189" type="standard_car" route="E_W" depart="735.0" departLane="random" departSpeed="10" />
    <vehicle id="W_E_190" type="standard_car" route="W_E" depart="737.0" departLane="random" departSpeed="10" />
    <vehicle id="S_N_191" type="standard_car" route="S_N" depart="739.0" departLane="random" departSpeed="10" />
    <vehicle id="S_N_192" type="standard_car" route="S_N" depart="739.0" departLane="random" departSpeed="10" />
    <vehicle id="N_W_193" type="standard_car" route="N_W" depart="739.0" departLane="random" departSpeed="10" />
    <vehicle id="N_E_194" type="standard_car" route="N_E" depart="740.0" departLane="random" departSpeed="10" />
    <vehicle id="N_S_195" type="standard_car" route="N_S" depart="741.0" departLane="random" departSpeed="10" />
    <vehicle id="E_S_196" type="standard_car" route="E_S" depart="742.0" departLane="random" departSpeed="10" />
    <vehicle id="N_S_197" type="standard_car" route="N_S" depart="742.0" departLane="random" departSpeed="10" />
    <vehicle id="W_E_198" type="standard_car" route="W_E" depart="743.0" departLane="random" departSpeed="10" />
    <vehicle id="W_S_199" type="standard_car" route="W_S" depart="745.0" departLane="random" departSpeed="10" />
    <vehicle id="E_N_200" type="standard_car" route="E_N" depart="745.0" departLane="random" departSpeed="10" />
    <vehicle id="W_E_201" type="standard_car" route="W_E" depart="745.0" departLane="random" departSpeed="10" />
    <vehicle id="N_S_202" type="standard_car" route="N_S" depart="746.0" departLane="random" departSpeed="10" />
    <vehicle id="W_E_203" type="standard_car" route="W_E" depart="747.0" departLane="random" departSpeed="10" />
    <vehicle id="W_E_204" type="standard_car" route="W_E" depart="750.0" departLane="random" departSpeed="10" />
    <vehicle id="N_S_205" type="standard_car" route="N_S" depart="751.0" departLane="random" departSpeed="10" />
    <vehicle id="E_W_206" type="standard_car" route="E_W" depart="751.0" departLane="random" departSpeed="10" />
    <vehicle id="E_W_207" type="standard_car" route="E_W" depart="754.0" departLane="random" departSpeed="10" />
    <vehicle id="N_E_208" type="standard_car" route="N_E" depart="754.0" departLane="random" departSpeed="10" />
    <vehicle id="W_E_209" type="standard_car" route="W_E" depart="756.0" departLane="random" departSpeed="10" />
    <vehicle id="W_E_210" type="standard_car" route="W_E" depart="756.0" departLane="random" departSpeed="10" />
    <vehicle id="W_N_211" type="standard_car" route="W_N" depart="758.0" departLane="random" departSpeed="10" />
    <vehicle id="W_E_212" type="standard_car" route="W_E" depart="758.0" departLane="random" departSpeed="10" />
    <vehicle id="N_E_213" type="standard_car" route="N_E" depart="759.0" departLane="random" departSpeed="10" />
    <vehicle id="N_S_214" type="standard_car" route="N_S" depart="759.0" departLane="random" departSpeed="10" />
    <vehicle id="S_W_215" type="standard_car" route="S_W" depart="760.0" departLane="random" departSpeed="10" />
    <vehicle id="N_S_216" type="standard_car" route="N_S" depart="761.0" departLane="random" departSpeed="10" />
    <vehicle id="N_S_217" type="standard_car" route="N_S" depart="761.0" departLane="random" departSpeed="10" />
    <vehicle id="N_S_218" type="standard_car" route="N_S" depart="762.0" departLane="random" departSpeed="10" />
    <vehicle id="S_N_219" type="standard_car" route="S_N" depart="763.0" departLane="random" departSpeed="10" />
    <vehicle id="S_N_220" type="standard_car" route="S_N" depart="764.0" departLane="random" departSpeed="10" />
    <vehicle id="W_E_221" type="standard_car" route="W_E" depart="764.0" departLane="random" departSpeed="10" />
    <vehicle id="S_W_222" type="standard_car" route="S_W" depart="765.0" departLane="random" departSpeed="10" />
    <vehicle id="W_S_223" type="standard_car" route="W_S" depart="765.0" departLane="random" departSpeed="10" />
    <vehicle id="S_N_224" type="standard_car" route="S_N" depart="766.0" departLane="random" departSpeed="10" />
    <vehicle id="N_S_225" type="standard_car" route="N_S" depart="766.0" departLane="random" departSpeed="10" />
    <vehicle id="W_E_226" type="standard_car" route="W_E" depart="766.0" departLane="random" departSpeed="10" />
    <vehicle id="S_N_227" type="standard_car" route="S_N" depart="767.0" departLane="random" departSpeed="10" />
    <vehicle id="E_S_228" type="standard_car" route="E_S" depart="768.0" departLane="random" departSpeed="10" />
    <vehicle id="N_S_229" type="standard_car" route="N_S" depart="768.0" departLane="random" departSpeed="10" />
    <vehicle id="W_E_230" type="standard_car" route="W_E" depart="769.0" departLane="random" departSpeed="10" />
    <vehicle id="N_S_231" type="standard_car" route="N_S" depart="770.0" departLane="random" departSpeed="10" />
    <vehicle id="S_E_232" type="standard_car" route="S_E" depart="770.0" departLane="random" departSpeed="10" />
    <vehicle id="W_E_233" type="standard_car" route="W_E" depart="772.0" departLane="random" departSpeed="10" />
    <vehicle id="N_S_234" type="standard_car" route="N_S" depart="775.0" departLane="random" departSpeed="10" />
    <vehicle id="S_N_235" type="standard_car" route="S_N" depart="776.0" departLane="random" departSpeed="10" />
    <vehicle id="N_S_236" type="standard_car" route="N_S" depart="778.0" departLane="random" departSpeed="10" />
    <vehicle id="W_S_237" type="standard_car" route="W_S" depart="779.0" departLane="random" departSpeed="10" />
    <vehicle id="N_S_238" type="standard_car" route="N_S" depart="779.0" departLane="random" departSpeed="10" />
    <vehicle id="W_E_239" type="standard_car" route="W_E" depart="780.0" departLane="random" departSpeed="10" />
    <vehicle id="W_E_240" type="standard_car" route="W_E" depart="780.0" departLane="random" departSpeed="10" />
    <vehicle id="N_S_241" type="standard_car" route="N_S" depart="780.0" departLane="random" departSpeed="10" />
    <vehicle id="E_W_242" type="standard_car" route="E_W" depart="782.0" departLane="random" departSpeed="10" />
    <vehicle id="N_E_243" type="standard_car" route="N_E" depart="783.0" departLane="random" departSpeed="10" />
    <vehicle id="W_S_244" type="standard_car" route="W_S" depart="784.0" departLane="random" departSpeed="10" />
    <vehicle id="N_W_245" type="standard_car" route="N_W" depart="785.0" departLane="random" departSpeed="10" />
    <vehicle id="S_N_246" type="standard_car" route="S_N" depart="787.0" departLane="random" departSpeed="10" />
    <vehicle id="S_N_247" type="standard_car" route="S_N" depart="788.0" departLane="random" departSpeed="10" />
    <vehicle id="E_N_248" type="standard_car" route="E_N" depart="788.0" departLane="random" departSpeed="10" />
    <vehicle id="W_E_249" type="standard_car" route="W_E" depart="791.0" departLane="random" departSpeed="10" />
    <vehicle id="W_S_250" type="standard_car" route="W_S" depart="792.0" departLane="random" departSpeed="10" />
    <vehicle id="E_W_251" type="standard_car" route="E_W" depart="795.0" departLane="random" departSpeed="10" />
    <vehicle id="N_S_252" type="standard_car" route="N_S" depart="796.0" departLane="random" departSpeed="10" />
    <vehicle id="N_S_253" type="standard_car" route="N_S" depart="798.0" departLane="random" departSpeed="10" />
    <vehicle id="S_E_254" type="standard_car" route="S_E" depart="799.0" departLane="random" departSpeed="10" />
    <vehicle id="E_W_255" type="standard_car" route="E_W" depart="799.0" departLane="random" departSpeed="10" />
    <vehicle id="N_S_256" type="standard_car" route="N_S" depart="800.0" departLane="random" departSpeed="10" />
    <vehicle id="N_S_257" type="standard_car" route="N_S" depart="801.0" departLane="random" departSpeed="10" />
    <vehicle id="W_N_258" type="standard_car" route="W_N" depart="801.0" departLane="random" departSpeed="10" />
    <vehicle id="N_S_259" type="standard_car" route="N_S" depart="802.0" departLane="random" departSpeed="10" />