<?xml version="1.0" encoding="UTF-8"?>
<routes>
                <vType accel="1.0" decel="4.5" id="standard_car" length="5.0" minGap="2.5" maxSpeed="25" sigma="0.5" />

                <route id="W_N" edges="E9 E25 E26 E21"/>
                <route id="W_E" edges="E9 E25 E26 E27 E28 E22"/>
                <route id="W_S" edges="E9 E25 E26 E27 E28 E29 E23"/>
                <route id="W_3" edges="E9 E25 E26 E27 E28 E29 E30 E31 E24"/>
                <route id="N_W" edges="E10 E26 E27 E28 E22"/>
                <route id="N_E" edges="E10 E26 E27 E28 E29 E23"/>
                <route id="N_S" edges="E10 E26 E27 E28 E29 E30 E31 E24"/>
                <route id="E_W" edges="E11 E28 E29 E30 E31 E32 E25 E26 E21"/>
                <route id="E_N" edges="E11 E28 E22"/>
                <route id="E_3" edges="E11 E28 E29 E23"/>
                <route id="E_S" edges="E11 E28 E29 E30 E31 E24"/>
                <route id="S_W" edges="E8 E31 E32 E25 E26 E21"/>
                <route id="S_3" edges="E8 E31 E32 E25 E26 E27 E28 E22"/>
                <route id="S_N" edges="E8 E31 E32 E25 E26 E27 E28 E29 E23"/>
                <route id="S_E" edges="E8 E31 E24"/>
    <vehicle id="W_E_0" type="standard_car" route="W_E" depart="18.0" departLane="random" departSpeed="10" />
    <vehicle id="E_W_1" type="standard_car" route="E_W" depart="17.0" departLane="random" departSpeed="10" />
    <vehicle id="E_N_2" type="standard_car" route="E_N" depart="79.0" departLane="random" departSpeed="10" />
    <vehicle id="W_E_3" type="standard_car" route="W_E" depart="85.0" departLane="random" departSpeed="10" />
    <vehicle id="W_N_4" type="standard_car" route="W_N" depart="180.0" departLane="random" departSpeed="10" />
    <vehicle id="W_S_5" type="standard_car" route="W_S" depart="210.0" departLane="random" departSpeed="10" />
    <vehicle id="E_S_6" type="standard_car" route="E_S" depart="242.0" departLane="random" departSpeed="10" />
    <vehicle id="E_S_7" type="standard_car" route="E_S" depart="264.0" departLane="random" departSpeed="10" />
    <vehicle id="W_N_8" type="standard_car" route="W_N" depart="285.0" departLane="random" departSpeed="10" />
    <vehicle id="W_N_9" type="standard_car" route="W_N" depart="288.0" departLane="random" departSpeed="10" />
    <vehicle id="W_E_10" type="standard_car" route="W_E" depart="293.0" departLane="random" departSpeed="10" />
    <vehicle id="W_N_11" type="standard_car" route="W_N" depart="301.0" departLane="random" departSpeed="10" />
    <vehicle id="N_S_12" type="standard_car" route="N_S" depart="309.0" departLane="random" departSpeed="10" />
    <vehicle id="N_W_13" type="standard_car" route="N_W" depart="319.0" departLane="random" departSpeed="10" />
    <vehicle id="N_S_14" type="standard_car" route="N_S" depart="343.0" departLane="random" departSpeed="10" />
    <vehicle id="N_S_15" type="standard_car" route="N_S" depart="354.0" departLane="random" departSpeed="10" />
    <vehicle id="S_N_16" type="standard_car" route="S_N" depart="357.0" departLane="random" departSpeed="10" />
    <vehicle id="E_W_17" type="standard_car" route="E_W" depart="362.0" departLane="random" departSpeed="10" />
    <vehicle id="N_S_18" type="standard_car" route="N_S" depart="365.0" departLane="random" departSpeed="10" />
    <vehicle id="W_N_19" type="standard_car" route="W_N" depart="417.0" departLane="random" departSpeed="10" />
    <vehicle id="N_W_20" type="standard_car" route="N_W" depart="425.0" departLane="random" departSpeed="10" />
    <vehicle id="W_N_21" type="standard_car" route="W_N" depart="436.0" departLane="random" departSpeed="10" />
    <vehicle id="S_N_22" type="standard_car" route="S_N" depart="447.0" departLane="random" departSpeed="10" />
    <vehicle id="E_W_23" type="standard_car" route="E_W" depart="459.0" departLane="random" departSpeed="10" />
    <vehicle id="S_N_24" type="standard_car" route="S_N" depart="481.0" departLane="random" departSpeed="10" />
    <vehicle id="E_W_25" type="standard_car" route="E_W" depart="525.0" departLane="random" departSpeed="10" />
    <vehicle id="E_N_26" type="standard_car" route="E_N" depart="528.0" departLane="random" departSpeed="10" />
    <vehicle id="N_S_27" type="standard_car" route="N_S" depart="530.0" departLane="random" departSpeed="10" />
    <vehicle id="S_N_28" type="standard_car" route="S_N" depart="540.0" departLane="random" departSpeed="10" />
    <vehicle id="N_E_29" type="standard_car" route="N_E" depart="547.0" departLane="random" departSpeed="10" />
    <vehicle id="W_N_30" type="standard_car" route="W_N" depart="550.0" departLane="random" departSpeed="10" />
    <vehicle id="N_S_31" type="standard_car" route="N_S" depart="552.0" departLane="random" departSpeed="10" />
    <vehicle id="W_N_32" type="standard_car" route="W_N" depart="561.0" departLane="random" departSpeed="10" />
    <vehicle id="W_S_33" type="standard_car" route="W_S" depart="563.0" departLane="random" departSpeed="10" />
    <vehicle id="S_N_34" type="standard_car" route="S_N" depart="569.0" departLane="random" departSpeed="10" />
    <vehicle id="N_S_35" type="standard_car" route="N_S" depart="570.0" departLane="random" departSpeed="10" />
    <vehicle id="W_S_36" type="standard_car" route="W_S" depart="570.0" departLane="random" departSpeed="10" />
    <vehicle id="W_N_37" type="standard_car" route="W_N" depart="576.0" departLane="random" departSpeed="10" />
    <vehicle id="E_S_38" type="standard_car" route="E_S" depart="580.0" departLane="random" departSpeed="10" />
    <vehicle id="W_E_39" type="standard_car" route="W_E" depart="581.0" departLane="random" departSpeed="10" />
    <vehicle id="E_N_40" type="standard_car" route="E_N" depart="584.0" departLane="random" departSpeed="10" />
    <vehicle id="E_W_41" type="standard_car" route="E_W" depart="592.0" departLane="random" departSpeed="10" />
    <vehicle id="E_N_42" type="standard_car" route="E_N" depart="595.0" departLane="random" departSpeed="10" />
    <vehicle id="N_E_43" type="standard_car" route="N_E" depart="604.0" departLane="random" departSpeed="10" />
    <vehicle id="E_N_44" type="standard_car" route="E_N" depart="614.0" departLane="random" departSpeed="10" />
    <vehicle id="S_N_45" type="standard_car" route="S_N" depart="617.0" departLane="random" departSpeed="10" />
    <vehicle id="W_S_46" type="standard_car" route="W_S" depart="624.0" departLane="random" departSpeed="10" />
    <vehicle id="W_N_47" type="standard_car" route="W_N" depart="624.0" departLane="random" departSpeed="10" />
    <vehicle id="E_W_48" type="standard_car" route="E_W" depart="642.0" departLane="random" departSpeed="10" />
    <vehicle id="E_W_49" type="standard_car" route="E_W" depart="642.0" departLane="random" departSpeed="10" />
    <vehicle id="E_N_50" type="standard_car" route="E_N" depart="645.0" departLane="random" departSpeed="10" />
    <vehicle id="E_W_51" type="standard_car" route="E_W" depart="646.0" departLane="random" departSpeed="10" />
    <vehicle id="N_S_52" type="standard_car" route="N_S" depart="652.0" departLane="random" departSpeed="10" />
    <vehicle id="S_E_53" type="standard_car" route="S_E" depart="654.0" departLane="random" departSpeed="10" />
    <vehicle id="S_W_54" type="standard_car" route="S_W" depart="656.0" departLane="random" departSpeed="10" />
    <vehicle id="W_E_55" type="standard_car" route="W_E" depart="662.0" departLane="random" departSpeed="10" />
    <vehicle id="N_E_56" type="standard_car" route="N_E" depart="664.0" departLane="random" departSpeed="10" />
    <vehicle id="N_E_57" type="standard_car" route="N_E" depart="680.0" departLane="random" departSpeed="10" />
    <vehicle id="S_W_58" type="standard_car" route="S_W" depart="694.0" departLane="random" departSpeed="10" />
    <vehicle id="N_W_59" type="standard_car" route="N_W" depart="695.0" departLane="random" departSpeed="10" />
    <vehicle id="E_N_60" type="standard_car" route="E_N" depart="696.0" departLane="random" departSpeed="10" />
    <vehicle id="E_N_61" type="standard_car" route="E_N" depart="709.0" departLane="random" departSpeed="10" />
    <vehicle id="W_E_62" type="standard_car" route="W_E" depart="711.0" departLane="random" departSpeed="10" />
    <vehicle id="N_S_63" type="standard_car" route="N_S" depart="714.0" departLane="random" departSpeed="10" />
    <vehicle id="W_E_64" type="standard_car" route="W_E" depart="718.0" departLane="random" departSpeed="10" />
    <vehicle id="N_S_65" type="standard_car" route="N_S" depart="724.0" departLane="random" departSpeed="10" />
    <vehicle id="S_W_66" type="standard_car" route="S_W" depart="728.0" departLane="random" departSpeed="10" />
    <vehicle id="W_N_67" type="standard_car" route="W_N" depart="729.0" departLane="random" departSpeed="10" />
    <vehicle id="S_N_68" type="standard_car" route="S_N" depart="734.0" departLane="random" departSpeed="10" />
    <vehicle id="W_E_69" type="standard_car" route="W_E" depart="735.0" departLane="random" departSpeed="10" />
    <vehicle id="E_W_70" type="standard_car" route="E_W" depart="740.0" departLane="random" departSpeed="10" />
    <vehicle id="S_W_71" type="standard_car" route="S_W" depart="740.0" departLane="random" departSpeed="10" />
    <vehicle id="S_N_72" type="standard_car" route="S_N" depart="742.0" departLane="random" departSpeed="10" />
    <vehicle id="W_E_73" type="standard_car" route="W_E" depart="757.0" departLane="random" departSpeed="10" />
    <vehicle id="E_W_74" type="standard_car" route="E_W" depart="759.0" departLane="random" departSpeed="10" />
    <vehicle id="W_S_75" type="standard_car" route="W_S" depart="761.0" departLane="random" departSpeed="10" />
    <vehicle id="S_W_76" type="standard_car" route="S_W" depart="768.0" departLane="random" departSpeed="10" />
    <vehicle id="W_E_77" type="standard_car" route="W_E" depart="769.0" departLane="random" departSpeed="10" />
    <vehicle id="W_E_78" type="standard_car" route="W_E" depart="769.0" departLane="random" departSpeed="10" />
    <vehicle id="S_E_79" type="standard_car" route="S_E" depart="777.0" departLane="random" departSpeed="10" />
    <vehicle id="S_W_80" type="standard_car" route="S_W" depart="778.0" departLane="random" departSpeed="10" />
    <vehicle id="E_S_81" type="standard_car" route="E_S" depart="780.0" departLane="random" departSpeed="10" />
    <vehicle id="E_S_82" type="standard_car" route="E_S" depart="789.0" departLane="random" departSpeed="10" />
    <vehicle id="W_N_83" type="standard_car" route="W_N" depart="792.0" departLane="random" departSpeed="10" />
    <vehicle id="S_W_84" type="standard_car" route="S_W" depart="798.0" departLane="random" departSpeed="10" />
    <vehicle id="S_W_85" type="standard_car" route="S_W" depart="799.0" departLane="random" departSpeed="10" />
    <vehicle id="N_S_86" type="standard_car" route="N_S" depart="805.0" departLane="random" departSpeed="10" />
    <vehicle id="E_W_87" type="standard_car" route="E_W" depart="812.0" departLane="random" departSpeed="10" />
    <vehicle id="W_E_88" type="standard_car" route="W_E" depart="812.0" departLane="random" departSpeed="10" />
    <vehicle id="W_E_89" type="standard_car" route="W_E" depart="813.0" departLane="random" departSpeed="10" />
    <vehicle id="N_S_90" type="standard_car" route="N_S" depart="821.0" departLane="random" departSpeed="10" />
    <vehicle id="E_S_91" type="standard_car" route="E_S" depart="821.0" departLane="random" departSpeed="10" />
    <vehicle id="N_W_92" type="standard_car" route="N_W" depart="832.0" departLane="random" departSpeed="10" />
    <vehicle id="W_N_93" type="standard_car" route="W_N" depart="833.0" departLane="random" departSpeed="10" />
    <vehicle id="S_N_94" type="standard_car" route="S_N" depart="835.0" departLane="random" departSpeed="10" />
    <vehicle id="S_E_95" type="standard_car" route="S_E" depart="838.0" departLane="random" departSpeed="10" />
    <vehicle id="W_E_96" type="standard_car" route="W_E" depart="842.0" departLane="random" departSpeed="10" />
    <vehicle id="W_E_97" type="standard_car" route="W_E" depart="847.0" departLane="random" departSpeed="10" />
    <vehicle id="W_E_98" type="standard_car" route="W_E" depart="852.0" departLane="random" departSpeed="10" />
    <vehicle id="N_S_99" type="standard_car" route="N_S" depart="852.0" departLane="random" departSpeed="10" />
    <vehicle id="E_S_100" type="standard_car" route="E_S" depart="859.0" departLane="random" departSpeed="10" />
    <vehicle id="W_N_101" type="standard_car" route="W_N" depart="869.0" departLane="random" departSpeed="10" />
    <vehicle id="N_S_102" type="standard_car" route="N_S" depart="871.0" departLane="random" departSpeed="10" />
    <vehicle id="S_W_103" type="standard_car" route="S_W" depart="872.0" departLane="random" departSpeed="10" />
    <vehicle id="E_W_104" type="standard_car" route="E_W" depart="880.0" departLane="random" departSpeed="10" />
    <vehicle id="W_E_105" type="standard_car" route="W_E" depart="880.0" departLane="random" departSpeed="10" />
    <vehicle id="W_E_106" type="standard_car" route="W_E" depart="884.0" departLane="random" departSpeed="10" />
    <vehicle id="W_N_107" type="standard_car" route="W_N" depart="889.0" departLane="random" departSpeed="10" />
    <vehicle id="W_E_108" type="standard_car" route="W_E" depart="890.0" departLane="random" departSpeed="10" />
    <vehicle id="E_W_109" type="standard_car" route="E_W" depart="897.0" departLane="random" departSpeed="10" />
    <vehicle id="E_W_110" type="standard_car" route="E_W" depart="899.0" departLane="random" departSpeed="10" />
    <vehicle id="W_E_111" type="standard_car" route="W_E" depart="914.0" departLane="random" departSpeed="10" />
    <vehicle id="N_S_112" type="standard_car" route="N_S" depart="916.0" departLane="random" departSpeed="10" />
    <vehicle id="W_S_113" type="standard_car" route="W_S" depart="916.0" departLane="random" departSpeed="10" />
    <vehicle id="S_N_114" type="standard_car" route="S_N" depart="932.0" departLane="random" departSpeed="10" />
    <vehicle id="S_W_115" type="standard_car" route="S_W" depart="953.0" departLane="random" departSpeed="10" />
    <vehicle id="E_S_116" type="standard_car" route="E_S" depart="958.0" departLane="random" departSpeed="10" />
    <vehicle id="S_W_117" type="standard_car" route="S_W" depart="965.0" departLane="random" departSpeed="10" />
    <vehicle id="E_S_118" type="standard_car" route="E_S" depart="977.0" departLane="random" departSpeed="10" />
    <vehicle id="E_S_119" type="standard_car" route="E_S" depart="979.0" departLane="random" departSpeed="10" />
    <vehicle id="E_N_120" type="standard_car" route="E_N" depart="986.0" departLane="random" departSpeed="10" />
    <vehicle id="S_E_121" type="standard_car" route="S_E" depart="986.0" departLane="random" departSpeed="10" />
    <vehicle id="N_E_122" type="standard_car" route="N_E" depart="994.0" departLane="random" departSpeed="10" />
    <vehicle id="N_W_123" type="standard_car" route="N_W" depart="1007.0" departLane="random" departSpeed="10" />
    <vehicle id="W_E_124" type="standard_car" route="W_E" depart="1008.0" departLane="random" departSpeed="10" />
    <vehicle id="E_S_125" type="standard_car" route="E_S" depart="1017.0" departLane="random" departSpeed="10" />
    <vehicle id="N_W_126" type="standard_car" route="N_W" depart="1018.0" departLane="random" departSpeed="10" />
    <vehicle id="W_E_127" type="standard_car" route="W_E" depart="1019.0" departLane="random" departSpeed="10" />
    <vehicle id="W_N_128" type="standard_car" route="W_N" depart="1037.0" departLane="random" departSpeed="10" />
    <vehicle id="S_W_129" type="standard_car" route="S_W" depart="1038.0" departLane="random" departSpeed="10" />
    <vehicle id="S_N_130" type="standard_car" route="S_N" depart="1038.0" departLane="random" departSpeed="10" />
    <vehicle id="N_S_131" type="standard_car" route="N_S" depart="1039.0" departLane="random" departSpeed="10" />
    <vehicle id="E_N_132" type="standard_car" route="E_N" depart="1045.0" departLane="random" departSpeed="10" />
    <vehicle id="N_E_133" type="standard_car" route="N_E" depart="1052.0" departLane="random" departSpeed="10" />
    <vehicle id="E_S_134" type="standard_car" route="E_S" depart="1056.0" departLane="random" departSpeed="10" />
    <vehicle id="S_N_135" type="standard_car" route="S_N" depart="1064.0" departLane="random" departSpeed="10" />
    <vehicle id="S_N_136" type="standard_car" route="S_N" depart="1071.0" departLane="random" departSpeed="10" />
    <vehicle id="E_N_137" type="standard_car" route="E_N" depart="1074.0" departLane="random" departSpeed="10" />
    <vehicle id="S_N_138" type="standard_car" route="S_N" depart="1081.0" departLane="random" departSpeed="10" />
    <vehicle id="W_E_139" type="standard_car" route="W_E" depart="1088.0" departLane="random" departSpeed="10" />
    <vehicle id="N_S_140" type="standard_car" route="N_S" depart="1089.0" departLane="random" departSpeed="10" />
    <vehicle id="E_S_141" type="standard_car" route="E_S" depart="1090.0" departLane="random" departSpeed="10" />
    <vehicle id="E_S_142" type="standard_car" route="E_S" depart="1092.0" departLane="random" departSpeed="10" />
    <vehicle id="W_S_143" type="standard_car" route="W_S" depart="1102.0" departLane="random" departSpeed="10" />
    <vehicle id="N_S_144" type="standard_car" route="N_S" depart="1116.0" departLane="random" departSpeed="10" />
    <vehicle id="S_N_145" type="standard_car" route="S_N" depart="1120.0" departLane="random" departSpeed="10" />
    <vehicle id="S_N_146" type="standard_car" route="S_N" depart="1129.0" departLane="random" departSpeed="10" />
    <vehicle id="W_E_147" type="standard_car" route="W_E" depart="1143.0" departLane="random" departSpeed="10" />
    <vehicle id="E_W_148" type="standard_car" route="E_W" depart="1148.0" departLane="random" departSpeed="10" />
    <vehicle id="W_E_149" type="standard_car" route="W_E" depart="1148.0" departLane="random" departSpeed="10" />
    <vehicle id="E_W_150" type="standard_car" route="E_W" depart="1152.0" departLane="random" departSpeed="10" />
    <vehicle id="E_W_151" type="standard_car" route="E_W" depart="1155.0" departLane="random" departSpeed="10" />
    <vehicle id="S_E_152" type="standard_car" route="S_E" depart="1162.0" departLane="random" departSpeed="10" />
    <vehicle id="N_W_153" type="standard_car" route="N_W" depart="1163.0" departLane="random" departSpeed="10" />
    <vehicle id="N_S_154" type="standard_car" route="N_S" depart="1166.0" departLane="random" departSpeed="10" />
    <vehicle id="S_W_155" type="standard_car" route="S_W" depart="1169.0" departLane="random" departSpeed="10" />
    <vehicle id="N_S_156" type="standard_car" route="N_S" depart="1172.0" departLane="random" departSpeed="10" />
    <vehicle id="E_S_157" type="standard_car" route="E_S" depart="1192.0" departLane="random" departSpeed="10" />
    <vehicle id="E_W_158" type="standard_car" route="E_W" depart="1192.0" departLane="random" departSpeed="10" />
    <vehicle id="N_E_159" type="standard_car" route="N_E" depart="1194.0" departLane="random" departSpeed="10" />
    <vehicle id="W_N_160" type="standard_car" route="W_N" depart="1197.0" departLane="random" departSpeed="10" />
    <vehicle id="S_E_161" type="standard_car" route="S_E" depart="1202.0" departLane="random" departSpeed="10" />
    <vehicle id="S_N_162" type="standard_car" route="S_N" depart="1205.0" departLane="random" departSpeed="10" />
    <vehicle id="E_S_163" type="standard_car" route="E_S" depart="1207.0" departLane="random" departSpeed="10" />
    <vehicle id="S_N_164" type="standard_car" route="S_N" depart="1213.0" departLane="random" departSpeed="10" />
    <vehicle id="E_W_165" type="standard_car" route="E_W" depart="1215.0" departLane="random" departSpeed="10" />
    <vehicle id="E_W_166" type="standard_car" route="E_W" depart="1222.0" departLane="random" departSpeed="10" />
    <vehicle id="W_E_167" type="standard_car" route="W_E" depart="1229.0" departLane="random" departSpeed="10" />
    <vehicle id="S_E_168" type="standard_car" route="S_E" depart="1229.0" departLane="random" departSpeed="10" />
    <vehicle id="N_S_169" type="standard_car" route="N_S" depart="1237.0" departLane="random" departSpeed="10" />
    <vehicle id="E_S_170" type="standard_car" route="E_S" depart="1243.0" departLane="random" departSpeed="10" />
    <vehicle id="N_S_171" type="standard_car" route="N_S" depart="1245.0" departLane="random" departSpeed="10" />
    <vehicle id="S_N_172" type="standard_car" route="S_N" depart="1250.0" departLane="random" departSpeed="10" />
    <vehicle id="E_N_173" type="standard_car" route="E_N" depart="1256.0" departLane="random" departSpeed="10" />
    <vehicle id="S_W_174" type="standard_car" route="S_W" depart="1268.0" departLane="random" departSpeed="10" />
    <vehicle id="S_W_175" type="standard_car" route="S_W" depart="1268.0" departLane="random" departSpeed="10" />
    <vehicle id="E_S_176" type="standard_car" route="E_S" depart="1278.0" departLane="random" departSpeed="10" />
    <vehicle id="S_W_177" type="standard_car" route="S_W" depart="1291.0" departLane="random" departSpeed="10" />
    <vehicle id="S_W_178" type="standard_car" route="S_W" depart="1316.0" departLane="random" departSpeed="10" />
    <vehicle id="S_N_179" type="standard_car" route="S_N" depart="1316.0" departLane="random" departSpeed="10" />
    <vehicle id="N_S_180" type="standard_car" route="N_S" depart="1336.0" departLane="random" departSpeed="10" />
    <vehicle id="W_E_181" type="standard_car" route="W_E" depart="1350.0" departLane="random" departSpeed="10" />
    <vehicle id="W_E_182" type="standard_car" route="W_E" depart="1379.0" departLane="random" departSpeed="10" />
    <vehicle id="S_N_183" type="standard_car" route="S_N" depart="1391.0" departLane="random" departSpeed="10" />
    <vehicle id="W_E_184" type="standard_car" route="W_E" depart="1394.0" departLane="random" departSpeed="10" />
    <vehicle id="N_E_185" type="standard_car" route="N_E" depart="1411.0" departLane="random" departSpeed="10" />
    <vehicle id="W_E_186" type="standard_car" route="W_E" depart="1411.0" departLane="random" departSpeed="10" />
    <vehicle id="W_S_187" type="standard_car" route="W_S" depart="1457.0" departLane="random" departSpeed="10" />
    <vehicle id="W_S_188" type="standard_car" route="W_S" depart="1458.0" departLane="random" departSpeed="10" />
    <vehicle id="N_S_189" type="standard_car" route="N_S" depart="1482.0" departLane="random" departSpeed="10" />
    <vehicle id="S_E_190" type="standard_car" route="S_E" depart="1510.0" departLane="random" departSpeed="10" />
    <vehicle id="W_E_191" type="standard_car" route="W_E" depart="1522.0" departLane="random" departSpeed="10" />
    <vehicle id="E_W_192" type="standard_car" route="E_W" depart="1540.0" departLane="random" departSpeed="10" />
    <vehicle id="E_N_193" type="standard_car" route="E_N" depart="1570.0" departLane="random" departSpeed="10" />
    <vehicle id="N_W_194" type="standard_car" route="N_W" depart="1600.0" departLane="random" departSpeed="10" />
    <vehicle id="N_E_195" type="standard_car" route="N_E" depart="1619.0" departLane="random" departSpeed="10" />
    <vehicle id="W_N_196" type="standard_car" route="W_N" depart="1639.0" departLane="random" departSpeed="10" />
    <vehicle id="W_S_197" type="standard_car" route="W_S" depart="1669.0" departLane="random" departSpeed="10" />
    <vehicle id="S_W_198" type="standard_car" route="S_W" depart="1689.0" departLane="random" departSpeed="10" />
</routes>
