<?xml version="1.0" encoding="UTF-8"?>

<!-- generated on 2023-04-22 00:09:16 by Eclipse SUMO netedit Version 1.16.0
<configuration xmlns:xsi="http://www.w3.org/2001/XMLSchema-instance" xsi:noNamespaceSchemaLocation="http://sumo.dlr.de/xsd/netconvertConfiguration.xsd">

    <input>
        <sumo-net-file value="C:\Users\tadhg_wmtcpnz\Desktop\SUMO-repo\optimal-traffic-control\SUMO-deep-learner\intersection\CopyOftest.net.xml"/>
    </input>

    <output>
        <output-file value="C:\Users\tadhg_wmtcpnz\Desktop\SUMO-repo\optimal-traffic-control\SUMO-deep-learner\intersection\CopyOftest.net.xml"/>
    </output>

    <processing>
        <geometry.min-radius.fix.railways value="false"/>
        <geometry.max-grade.fix value="false"/>
        <offset.disable-normalization value="true"/>
        <lefthand value="1"/>
    </processing>

    <junctions>
        <no-turnarounds value="true"/>
        <junctions.corner-detail value="5"/>
        <junctions.limit-turn-speed value="5.50"/>
        <rectangular-lane-cut value="0"/>
    </junctions>

    <pedestrian>
        <walkingareas value="0"/>
    </pedestrian>

</configuration>
-->

<net version="1.16" junctionCornerDetail="5" lefthand="true" limitTurnSpeed="5.50" xmlns:xsi="http://www.w3.org/2001/XMLSchema-instance" xsi:noNamespaceSchemaLocation="http://sumo.dlr.de/xsd/net_file.xsd">

    <location netOffset="0.00,0.00" convBoundary="-700.00,-700.00,700.00,700.00" origBoundary="-10000000000.00,-10000000000.00,10000000000.00,10000000000.00" projParameter="!"/>

    <edge id=":J20_0" function="internal">
        <lane id=":J20_0_0" index="0" speed="9.79" length="13.07" shape="-47.51,-8.47 -50.30,-3.92 -51.02,0.62 -49.65,5.14 -46.20,9.64"/>
        <lane id=":J20_0_1" index="1" speed="8.61" length="13.07" shape="-45.06,-6.42 -47.16,-2.97 -47.67,0.48 -46.60,3.92 -43.94,7.38"/>
        <lane id=":J20_0_2" index="2" speed="7.23" length="13.07" shape="-42.61,-4.36 -44.01,-2.03 -44.32,0.33 -43.54,2.71 -41.67,5.11"/>
        <lane id=":J20_0_3" index="3" speed="5.53" length="13.07" shape="-40.16,-2.30 -40.87,-1.08 -40.98,0.19 -40.49,1.50 -39.41,2.85"/>
    </edge>
    <edge id=":J20_4" function="internal">
        <lane id=":J20_4_0" index="0" speed="11.61" length="12.42" shape="-58.38,8.00 -53.66,8.10 -50.06,8.41 -47.58,8.92 -46.20,9.64"/>
        <lane id=":J20_4_1" index="1" speed="12.68" length="14.89" shape="-58.38,4.80 -53.03,4.96 -48.84,5.44 -45.81,6.25 -43.94,7.38"/>
        <lane id=":J20_4_2" index="2" speed="13.67" length="17.37" shape="-58.38,1.60 -52.39,1.82 -47.61,2.48 -44.04,3.58 -41.67,5.11"/>
        <lane id=":J20_4_3" index="3" speed="13.89" length="19.08" shape="-58.38,1.60 -50.55,1.68 -44.78,1.91 -41.07,2.30 -39.41,2.85"/>
    </edge>
    <edge id=":J21_0" function="internal">
        <lane id=":J21_0_0" index="0" speed="9.29" length="9.84" shape="-8.00,-51.64 -8.14,-48.18 -8.55,-45.47 -9.25,-43.51 -10.22,-42.29"/>
        <lane id=":J21_0_1" index="1" speed="10.52" length="12.76" shape="-4.80,-51.64 -5.02,-47.42 -5.67,-44.04 -6.76,-41.48 -8.28,-39.74"/>
        <lane id=":J21_0_2" index="2" speed="11.63" length="15.69" shape="-1.60,-51.64 -1.90,-46.67 -2.79,-42.61 -4.27,-39.45 -6.35,-37.19"/>
    </edge>
    <edge id=":J21_3" function="internal">
        <lane id=":J21_3_0" index="0" speed="13.01" length="12.32" shape="2.81,-47.75 -1.40,-47.81 -4.23,-46.90 -6.80,-45.05 -10.22,-42.29"/>
        <lane id=":J21_3_1" index="1" speed="11.92" length="12.32" shape="2.47,-44.57 -1.02,-44.57 -3.34,-43.72 -5.44,-42.09 -8.28,-39.74"/>
        <lane id=":J21_3_2" index="2" speed="10.73" length="12.32" shape="2.14,-41.38 -0.64,-41.34 -2.45,-40.55 -4.09,-39.12 -6.35,-37.19"/>
    </edge>
    <edge id=":J22_0" function="internal">
        <lane id=":J22_0_0" index="0" speed="6.63" length="6.85" shape="49.45,-8.00 47.66,-8.23 46.19,-8.91 45.04,-10.05 44.20,-11.65"/>
        <lane id=":J22_0_1" index="1" speed="8.16" length="10.76" shape="49.45,-4.80 46.64,-5.16 44.33,-6.23 42.52,-8.02 41.20,-10.53"/>
        <lane id=":J22_0_2" index="2" speed="9.44" length="14.67" shape="49.45,-1.60 45.62,-2.09 42.47,-3.55 40.00,-6.00 38.21,-9.42"/>
    </edge>
    <edge id=":J22_3" function="internal">
        <lane id=":J22_3_0" index="0" speed="13.89" length="13.88" shape="44.29,3.51 44.65,-0.73 44.12,-3.64 42.91,-6.49 41.20,-10.53"/>
        <lane id=":J22_3_1" index="1" speed="13.89" length="13.88" shape="41.13,3.00 41.42,-0.76 40.89,-3.33 39.74,-5.84 38.21,-9.42"/>
    </edge>
    <edge id=":J23_0" function="internal">
        <lane id=":J23_0_0" index="0" speed="8.94" length="13.19" shape="4.80,60.91 5.03,56.13 5.72,52.52 6.88,50.09 8.50,48.84"/>
        <lane id=":J23_0_1" index="1" speed="10.10" length="17.06" shape="1.60,60.91 1.96,55.10 3.05,50.65 4.87,47.56 7.41,45.83"/>
        <lane id=":J23_0_2" index="2" speed="10.74" length="19.41" shape="1.60,60.91 1.89,53.63 2.78,48.19 4.25,44.59 6.32,42.82"/>
        <lane id=":J23_0_3" index="3" speed="11.38" length="21.89" shape="1.60,60.91 1.83,52.17 2.51,45.74 3.64,41.62 5.23,39.81"/>
    </edge>
    <edge id=":J23_4" function="internal">
        <lane id=":J23_4_0" index="0" speed="11.36" length="14.28" shape="-9.90,45.93 -6.12,48.75 -1.80,50.17 3.08,50.20 8.50,48.84"/>
        <lane id=":J23_4_1" index="1" speed="10.30" length="14.28" shape="-7.64,43.67 -4.61,45.90 -1.09,47.00 2.92,46.98 7.41,45.83"/>
        <lane id=":J23_4_2" index="2" speed="9.12" length="14.28" shape="-5.38,41.41 -3.09,43.05 -0.38,43.83 2.75,43.76 6.32,42.82"/>
        <lane id=":J23_4_3" index="3" speed="7.76" length="14.28" shape="-3.12,39.15 -1.58,40.20 0.32,40.66 2.59,40.53 5.23,39.81"/>
    </edge>
    <edge id=":J28_0" function="internal">
        <lane id=":J28_0_0" index="0" speed="6.71" length="6.16" shape="36.51,38.71 38.08,38.34 39.55,38.42 40.94,38.93 42.23,39.87"/>
        <lane id=":J28_0_1" index="1" speed="8.26" length="9.69" shape="35.42,35.70 37.88,35.13 40.20,35.24 42.38,36.04 44.41,37.53"/>
    </edge>
    <edge id=":J28_2" function="internal">
        <lane id=":J28_2_0" index="0" speed="8.60" length="8.41" shape="34.34,32.69 36.81,31.49 38.70,29.89 40.00,27.89 40.72,25.49"/>
        <lane id=":J28_2_1" index="1" speed="7.10" length="8.41" shape="33.25,29.68 34.93,28.87 36.21,27.82 37.09,26.52 37.56,24.97"/>
    </edge>
    <edge id=":J30_0" function="internal">
        <lane id=":J30_0_0" index="0" speed="6.97" length="8.80" shape="42.50,-16.24 42.11,-18.29 42.53,-20.20 43.76,-21.97 45.80,-23.59"/>
    </edge>
    <edge id=":J30_1" function="internal">
        <lane id=":J30_1_0" index="0" speed="13.89" length="12.58" shape="39.50,-15.13 34.79,-26.90"/>
        <lane id=":J30_1_1" index="1" speed="13.89" length="12.58" shape="36.50,-14.01 31.87,-25.60"/>
    </edge>
    <edge id=":J32_0" function="internal">
        <lane id=":J32_0_0" index="0" speed="12.78" length="8.76" shape="32.79,-39.28 31.73,-41.65 31.13,-43.36 30.97,-45.14 31.24,-47.69"/>
        <lane id=":J32_0_1" index="1" speed="13.89" length="10.45" shape="32.79,-39.28 31.09,-41.91 29.39,-43.58 28.21,-45.32 28.07,-48.16"/>
    </edge>
    <edge id=":J32_2" function="internal">
        <lane id=":J32_2_0" index="0" speed="9.07" length="7.77" shape="32.79,-39.28 31.32,-41.77 29.40,-43.64 27.03,-44.88 24.21,-45.51"/>
        <lane id=":J32_2_1" index="1" speed="7.67" length="7.77" shape="29.87,-37.98 28.84,-39.72 27.50,-41.02 25.85,-41.89 23.88,-42.33"/>
        <lane id=":J32_2_2" index="2" speed="5.94" length="7.77" shape="26.94,-36.68 26.36,-37.66 25.60,-38.40 24.66,-38.90 23.54,-39.15"/>
    </edge>
    <edge id=":J34_0" function="internal">
        <lane id=":J34_0_0" index="0" speed="8.47" length="10.82" shape="-20.39,-34.57 -22.36,-33.62 -24.72,-33.46 -27.47,-34.08 -30.61,-35.49"/>
    </edge>
    <edge id=":J34_1" function="internal">
        <lane id=":J34_1_0" index="0" speed="13.89" length="8.92" shape="-18.46,-32.02 -20.99,-30.65 -23.05,-30.20 -24.97,-29.60 -27.09,-27.80"/>
        <lane id=":J34_1_1" index="1" speed="13.89" length="8.92" shape="-18.46,-32.02 -20.51,-30.39 -21.80,-29.15 -22.97,-27.77 -24.64,-25.74"/>
        <lane id=":J34_1_2" index="2" speed="13.89" length="8.92" shape="-16.52,-29.47 -18.40,-27.97 -19.59,-26.82 -20.66,-25.55 -22.19,-23.68"/>
    </edge>

    <edge id="E10" from="J18" to="J23" priority="-1">
        <lane id="E10_0" index="0" speed="13.89" length="639.09" shape="4.80,700.00 4.80,60.91"/>
        <lane id="E10_1" index="1" speed="13.89" length="639.09" shape="1.60,700.00 1.60,60.91"/>
    </edge>
    <edge id="E11" from="J19" to="J22" priority="-1">
        <lane id="E11_0" index="0" speed="13.89" length="650.55" shape="700.00,-8.00 49.45,-8.00"/>
        <lane id="E11_1" index="1" speed="13.89" length="650.55" shape="700.00,-4.80 49.45,-4.80"/>
        <lane id="E11_2" index="2" speed="13.89" length="650.55" shape="700.00,-1.60 49.45,-1.60"/>
    </edge>
    <edge id="E21" from="J28" to="J29" priority="-1">
        <lane id="E21_0" index="0" speed="13.89" length="182.45" shape="42.23,39.87 175.76,164.20"/>
        <lane id="E21_1" index="1" speed="13.89" length="182.45" shape="44.41,37.53 177.94,161.86"/>
    </edge>
    <edge id="E22" from="J30" to="J31" priority="-1">
        <lane id="E22_0" index="0" speed="13.89" length="258.43" shape="45.80,-23.59 263.65,-162.61"/>
        <lane id="E22_1" index="1" speed="13.89" length="258.43" shape="44.08,-26.29 261.93,-165.31"/>
    </edge>
    <edge id="E23" from="J32" to="J33" priority="-1">
        <lane id="E23_0" index="0" speed="13.89" length="251.04" shape="31.24,-47.69 67.84,-296.05"/>
        <lane id="E23_1" index="1" speed="13.89" length="251.04" shape="28.07,-48.16 64.67,-296.52"/>
    </edge>
    <edge id="E24" from="J34" to="J35" priority="-1">
        <lane id="E24_0" index="0" speed="13.89" length="229.28" shape="-30.61,-35.49 -232.29,-144.56"/>
    </edge>
    <edge id="E25" from="J20" to="J23" priority="-1">
        <lane id="E25_0" index="0" speed="13.89" length="51.33" shape="-46.20,9.64 -9.90,45.93"/>
        <lane id="E25_1" index="1" speed="13.89" length="51.33" shape="-43.94,7.38 -7.64,43.67"/>
        <lane id="E25_2" index="2" speed="13.89" length="51.33" shape="-41.67,5.11 -5.38,41.41"/>
        <lane id="E25_3" index="3" speed="13.89" length="51.33" shape="-39.41,2.85 -3.12,39.15"/>
    </edge>
    <edge id="E26" from="J23" to="J28" priority="-1">
        <lane id="E26_0" index="0" speed="13.89" length="29.79" shape="8.50,48.84 36.51,38.71"/>
        <lane id="E26_1" index="1" speed="13.89" length="29.79" shape="7.41,45.83 35.42,35.70"/>
        <lane id="E26_2" index="2" speed="13.89" length="29.79" shape="6.32,42.82 34.34,32.69"/>
        <lane id="E26_3" index="3" speed="13.89" length="29.79" shape="5.23,39.81 33.25,29.68"/>
    </edge>
    <edge id="E27" from="J28" to="J22" priority="-1">
        <lane id="E27_0" index="0" speed="13.89" length="22.26" shape="40.72,25.49 44.29,3.51"/>
        <lane id="E27_1" index="1" speed="13.89" length="22.26" shape="37.56,24.97 41.13,3.00"/>
    </edge>
    <edge id="E28" from="J22" to="J30" priority="-1">
        <lane id="E28_0" index="0" speed="13.89" length="4.90" shape="44.20,-11.65 42.50,-16.24"/>
        <lane id="E28_1" index="1" speed="13.89" length="4.90" shape="41.20,-10.53 39.50,-15.13"/>
        <lane id="E28_2" index="2" speed="13.89" length="4.90" shape="38.21,-9.42 36.50,-14.01"/>
    </edge>
    <edge id="E29" from="J30" to="J32" priority="-1">
        <lane id="E29_0" index="0" speed="13.89" length="12.13" shape="37.72,-28.20 32.79,-39.28"/>
        <lane id="E29_1" index="1" speed="13.89" length="12.13" shape="34.79,-26.90 29.87,-37.98"/>
        <lane id="E29_2" index="2" speed="13.89" length="12.13" shape="31.87,-25.60 26.94,-36.68"/>
    </edge>
    <edge id="E30" from="J32" to="J21" priority="-1">
        <lane id="E30_0" index="0" speed="13.89" length="21.52" shape="24.21,-45.51 2.81,-47.75"/>
        <lane id="E30_1" index="1" speed="13.89" length="21.52" shape="23.88,-42.33 2.47,-44.57"/>
        <lane id="E30_2" index="2" speed="13.89" length="21.52" shape="23.54,-39.15 2.14,-41.38"/>
    </edge>
    <edge id="E31" from="J21" to="J34" priority="-1">
        <lane id="E31_0" index="0" speed="13.89" length="12.77" shape="-10.22,-42.29 -20.39,-34.57"/>
        <lane id="E31_1" index="1" speed="13.89" length="12.77" shape="-8.28,-39.74 -18.46,-32.02"/>
        <lane id="E31_2" index="2" speed="13.89" length="12.77" shape="-6.35,-37.19 -16.52,-29.47"/>
    </edge>
    <edge id="E32" from="J34" to="J20" priority="-1">
        <lane id="E32_0" index="0" speed="13.89" length="27.93" shape="-29.54,-29.85 -47.51,-8.47"/>
        <lane id="E32_1" index="1" speed="13.89" length="27.93" shape="-27.09,-27.80 -45.06,-6.42"/>
        <lane id="E32_2" index="2" speed="13.89" length="27.93" shape="-24.64,-25.74 -42.61,-4.36"/>
        <lane id="E32_3" index="3" speed="13.89" length="27.93" shape="-22.19,-23.68 -40.16,-2.30"/>
    </edge>
    <edge id="E8" from="J16" to="J21" priority="-1">
        <lane id="E8_0" index="0" speed="13.89" length="648.36" shape="-8.00,-700.00 -8.00,-51.64"/>
        <lane id="E8_1" index="1" speed="13.89" length="648.36" shape="-4.80,-700.00 -4.80,-51.64"/>
        <lane id="E8_2" index="2" speed="13.89" length="648.36" shape="-1.60,-700.00 -1.60,-51.64"/>
    </edge>
    <edge id="E9" from="J17" to="J20" priority="-1">
        <lane id="E9_0" index="0" speed="13.89" length="641.62" shape="-700.00,8.00 -58.38,8.00"/>
        <lane id="E9_1" index="1" speed="13.89" length="641.62" shape="-700.00,4.80 -58.38,4.80"/>
        <lane id="E9_2" index="2" speed="13.89" length="641.62" shape="-700.00,1.60 -58.38,1.60"/>
    </edge>
    <!-- J20 J23 J22 J21-->
    <tlLogic id="J20" type="static" programID="0" offset="0">
        <phase duration="42" state="GGGGrrrr"/>
        <phase duration="3"  state="yyyyrrrr"/>
        <phase duration="42" state="rrrrGGGG"/>
        <phase duration="3"  state="rrrryyyy"/>
    </tlLogic>
    <tlLogic id="J21" type="static" programID="0" offset="0">
        <phase duration="42" state="GGGrrr"/>
        <phase duration="3"  state="yyyrrr"/>
        <phase duration="42" state="rrrGGG"/>
        <phase duration="3"  state="rrryyy"/>
    </tlLogic>
    <tlLogic id="J22" type="static" programID="0" offset="0">
        <phase duration="42" state="rrrGG"/>
        <phase duration="3"  state="rrryy"/>
        <phase duration="42" state="GGGrr"/>
        <phase duration="3"  state="yyyrr"/>
    </tlLogic>
    <tlLogic id="J23" type="static" programID="0" offset="0">
        <phase duration="42" state="GGGGrrrr"/>
        <phase duration="3"  state="yyyyrrrr"/>
        <phase duration="42" state="rrrrGGGG"/>
        <phase duration="3"  state="rrrryyyy"/>
    </tlLogic>

    <junction id="J16" type="dead_end" x="0.00" y="-700.00" incLanes="" intLanes="" shape="0.00,-700.00 -9.60,-700.00"/>
    <junction id="J17" type="dead_end" x="-700.00" y="0.00" incLanes="" intLanes="" shape="-700.00,-0.00 -700.00,9.60"/>
    <junction id="J18" type="dead_end" x="0.00" y="700.00" incLanes="" intLanes="" shape="0.00,700.00 6.40,700.00"/>
    <junction id="J19" type="dead_end" x="700.00" y="0.00" incLanes="" intLanes="" shape="700.00,-0.00 700.00,-9.60"/>
    <junction id="J20" type="traffic_light" x="-40.00" y="0.00" incLanes="E32_0 E32_1 E32_2 E32_3 E9_0 E9_1 E9_2" intLanes=":J20_0_0 :J20_0_1 :J20_0_2 :J20_0_3 :J20_4_0 :J20_4_1 :J20_4_2 :J20_4_3" shape="-48.73,-9.50 -38.93,-1.27 -39.34,-0.37 -39.30,0.11 -39.12,0.62 -38.78,1.16 -38.28,1.72 -47.33,10.77 -49.08,10.12 -50.68,9.89 -52.76,9.73 -55.33,9.63 -58.38,9.60 -58.38,-0.00 -56.57,-1.06 -55.14,-2.38 -53.35,-4.22 -51.22,-6.60">
        <request index="0" response="00000000" foes="11110000" cont="0"/>
        <request index="1" response="00000000" foes="11100000" cont="0"/>
        <request index="2" response="00000000" foes="11000000" cont="0"/>
        <request index="3" response="00000000" foes="10000000" cont="0"/>
        <request index="4" response="00000001" foes="00000001" cont="0"/>
        <request index="5" response="00000011" foes="00000011" cont="0"/>
        <request index="6" response="00000111" foes="00000111" cont="0"/>
        <request index="7" response="00001111" foes="00001111" cont="0"/>
    </junction>
    <junction id="J21" type="traffic_light" x="0.00" y="-40.00" incLanes="E8_0 E8_1 E8_2 E30_0 E30_1 E30_2" intLanes=":J21_0_0 :J21_0_1 :J21_0_2 :J21_3_0 :J21_3_1 :J21_3_2" shape="-9.60,-51.64 0.00,-51.64 0.33,-50.50 0.74,-50.07 1.32,-49.73 2.07,-49.49 2.97,-49.34 1.98,-39.79 -1.03,-39.54 -2.01,-38.96 -2.92,-38.14 -3.97,-37.11 -5.38,-35.92 -11.18,-43.57 -10.30,-45.00 -10.00,-46.18 -9.78,-47.69 -9.64,-49.51">
        <request index="0" response="001000" foes="001000" cont="0"/>
        <request index="1" response="011000" foes="011000" cont="0"/>
        <request index="2" response="111000" foes="111000" cont="0"/>
        <request index="3" response="000000" foes="000111" cont="0"/>
        <request index="4" response="000000" foes="000110" cont="0"/>
        <request index="5" response="000000" foes="000100" cont="0"/>
    </junction>
    <junction id="J22" type="traffic_light" x="40.00" y="0.00" incLanes="E11_0 E11_1 E11_2 E27_0 E27_1" intLanes=":J22_0_0 :J22_0_1 :J22_0_2 :J22_3_0 :J22_3_1" shape="49.45,-9.60 49.45,-0.00 47.74,0.42 47.07,0.94 46.54,1.68 46.14,2.62 45.87,3.77 39.55,2.74 39.82,0.23 39.70,-1.64 39.27,-3.17 38.58,-4.67 37.71,-6.47 36.71,-8.86 45.70,-12.21 46.55,-10.76 47.13,-10.25 47.80,-9.89 48.58,-9.67">
        <request index="0" response="00000" foes="00000" cont="0"/>
        <request index="1" response="01000" foes="01000" cont="0"/>
        <request index="2" response="11000" foes="11000" cont="0"/>
        <request index="3" response="00000" foes="00110" cont="0"/>
        <request index="4" response="00000" foes="00100" cont="0"/>
    </junction>
    <junction id="J23" type="traffic_light" x="0.00" y="40.00" incLanes="E10_0 E10_1 E25_0 E25_1 E25_2 E25_3" intLanes=":J23_0_0 :J23_0_1 :J23_0_2 :J23_0_3 :J23_4_0 :J23_4_1 :J23_4_2 :J23_4_3" shape="4.69,38.31 9.04,50.34 7.57,51.94 7.06,53.46 6.69,55.46 6.47,57.95 6.40,60.91 0.00,60.91 -1.23,58.12 -2.76,56.04 -4.90,53.51 -7.66,50.52 -11.04,47.07 -1.98,38.02 -0.36,38.93 0.68,39.08 1.86,39.03 3.20,38.77">
        <request index="0" response="00010000" foes="00010000" cont="0"/>
        <request index="1" response="00110000" foes="00110000" cont="0"/>
        <request index="2" response="01110000" foes="01110000" cont="0"/>
        <request index="3" response="11110000" foes="11110000" cont="0"/>
        <request index="4" response="00000000" foes="00001111" cont="0"/>
        <request index="5" response="00000000" foes="00001110" cont="0"/>
        <request index="6" response="00000000" foes="00001100" cont="0"/>
        <request index="7" response="00000000" foes="00001000" cont="0"/>
    </junction>
    <junction id="J28" type="priority" x="35.59" y="27.13" incLanes="E26_0 E26_1 E26_2 E26_3" intLanes=":J28_0_0 :J28_0_1 :J28_2_0 :J28_2_1" shape="35.98,24.72 42.30,25.75 42.09,27.88 42.18,29.87 42.56,31.71 43.24,33.41 44.23,34.96 45.50,36.36 41.14,41.05 39.89,40.21 39.23,40.00 38.53,39.93 37.81,40.00 37.06,40.21 32.70,28.17 34.35,27.33 34.97,26.79 35.44,26.17 35.78,25.48">
        <request index="0" response="0000" foes="0000" cont="0"/>
        <request index="1" response="0000" foes="0000" cont="0"/>
        <request index="2" response="0000" foes="0000" cont="0"/>
        <request index="3" response="0000" foes="0000" cont="0"/>
    </junction>
    <junction id="J29" type="dead_end" x="179.03" y="160.69" incLanes="E21_0 E21_1" intLanes="" shape="174.67,165.37 179.03,160.69"/>
    <junction id="J30" type="priority" x="32.31" y="-20.68" incLanes="E28_0 E28_1 E28_2" intLanes=":J30_0_0 :J30_1_0 :J30_1_1" shape="43.22,-27.64 46.66,-22.25 44.68,-20.56 44.10,-19.67 43.79,-18.75 43.76,-17.79 44.00,-16.80 35.00,-13.45 30.41,-24.95 39.18,-28.85 40.21,-27.41 40.85,-27.07 41.56,-27.00 42.35,-27.19">
        <request index="0" response="000" foes="000" cont="0"/>
        <request index="1" response="000" foes="000" cont="0"/>
        <request index="2" response="000" foes="000" cont="0"/>
    </junction>
    <junction id="J31" type="dead_end" x="261.07" y="-166.66" incLanes="E22_0 E22_1" intLanes="" shape="264.51,-161.26 261.07,-166.66"/>
    <junction id="J32" type="priority" x="24.87" y="-37.40" incLanes="E29_0 E29_1 E29_2" intLanes=":J32_0_0 :J32_0_1 :J32_2_0 :J32_2_1 :J32_2_2" shape="26.49,-48.39 32.82,-47.46 32.60,-44.60 32.74,-43.59 33.06,-42.60 33.57,-41.44 34.25,-39.93 25.48,-36.03 24.98,-36.81 24.65,-37.10 24.27,-37.32 23.85,-37.47 23.38,-37.56 24.38,-47.10 25.45,-47.16 25.85,-47.33 26.16,-47.59 26.37,-47.94">
        <request index="0" response="00000" foes="00000" cont="0"/>
        <request index="1" response="00000" foes="00000" cont="0"/>
        <request index="2" response="00000" foes="00000" cont="0"/>
        <request index="3" response="00000" foes="00000" cont="0"/>
        <request index="4" response="00000" foes="00000" cont="0"/>
    </junction>
    <junction id="J33" type="dead_end" x="63.09" y="-296.75" incLanes="E23_0 E23_1" intLanes="" shape="69.42,-295.82 63.09,-296.75"/>
    <junction id="J34" type="priority" x="-17.61" y="-26.64" incLanes="E31_0 E31_1 E31_2" intLanes=":J34_0_0 :J34_1_0 :J34_1_1 :J34_1_2" shape="-21.36,-35.85 -15.56,-28.20 -17.78,-26.38 -18.48,-25.66 -19.14,-24.88 -19.91,-23.93 -20.96,-22.65 -30.76,-30.88 -30.09,-32.12 -30.09,-32.67 -30.30,-33.18 -30.73,-33.65 -31.37,-34.08 -29.85,-36.90 -28.01,-36.00 -26.34,-35.39 -24.84,-35.08 -23.51,-35.04 -22.35,-35.30">
        <request index="0" response="0000" foes="0000" cont="0"/>
        <request index="1" response="0000" foes="0000" cont="0"/>
        <request index="2" response="0000" foes="0000" cont="0"/>
        <request index="3" response="0000" foes="0000" cont="0"/>
    </junction>
    <junction id="J35" type="dead_end" x="-233.05" y="-143.15" incLanes="E24_0" intLanes="" shape="-231.53,-145.96 -233.05,-143.15"/>

    <connection from="E10" to="E26" fromLane="0" toLane="0" via=":J23_0_0" tl="J23" linkIndex="0" dir="l" state="o" visibility="9.00"/>
    <connection from="E10" to="E26" fromLane="1" toLane="1" via=":J23_0_1" tl="J23" linkIndex="1" dir="l" state="o" visibility="9.00"/>
    <connection from="E10" to="E26" fromLane="1" toLane="2" via=":J23_0_2" tl="J23" linkIndex="2" dir="l" state="o" visibility="9.00"/>
    <connection from="E10" to="E26" fromLane="1" toLane="3" via=":J23_0_3" tl="J23" linkIndex="3" dir="l" state="o" visibility="9.00"/>
    <connection from="E11" to="E28" fromLane="0" toLane="0" via=":J22_0_0" tl="J22" linkIndex="0" dir="l" state="O"/>
    <connection from="E11" to="E28" fromLane="1" toLane="1" via=":J22_0_1" tl="J22" linkIndex="1" dir="l" state="o" visibility="9.00"/>
    <connection from="E11" to="E28" fromLane="2" toLane="2" via=":J22_0_2" tl="J22" linkIndex="2" dir="l" state="o" visibility="9.00"/>
    <connection from="E25" to="E26" fromLane="0" toLane="0" via=":J23_4_0" tl="J23" linkIndex="4" dir="s" state="O"/>
    <connection from="E25" to="E26" fromLane="1" toLane="1" via=":J23_4_1" tl="J23" linkIndex="5" dir="s" state="O"/>
    <connection from="E25" to="E26" fromLane="2" toLane="2" via=":J23_4_2" tl="J23" linkIndex="6" dir="s" state="O"/>
    <connection from="E25" to="E26" fromLane="3" toLane="3" via=":J23_4_3" tl="J23" linkIndex="7" dir="s" state="O"/>
    <connection from="E26" to="E21" fromLane="0" toLane="0" via=":J28_0_0" dir="l" state="M"/>
    <connection from="E26" to="E21" fromLane="1" toLane="1" via=":J28_0_1" dir="l" state="M"/>
    <connection from="E26" to="E27" fromLane="2" toLane="0" via=":J28_2_0" dir="s" state="M"/>
    <connection from="E26" to="E27" fromLane="3" toLane="1" via=":J28_2_1" dir="s" state="M"/>
    <connection from="E27" to="E28" fromLane="0" toLane="1" via=":J22_3_0" tl="J22" linkIndex="3" dir="s" state="O"/>
    <connection from="E27" to="E28" fromLane="1" toLane="2" via=":J22_3_1" tl="J22" linkIndex="4" dir="s" state="O"/>
    <connection from="E28" to="E22" fromLane="0" toLane="0" via=":J30_0_0" dir="l" state="M"/>
    <connection from="E28" to="E29" fromLane="1" toLane="1" via=":J30_1_0" dir="s" state="M"/>
    <connection from="E28" to="E29" fromLane="2" toLane="2" via=":J30_1_1" dir="s" state="M"/>
    <connection from="E29" to="E23" fromLane="0" toLane="0" via=":J32_0_0" dir="s" state="M"/>
    <connection from="E29" to="E23" fromLane="0" toLane="1" via=":J32_0_1" dir="s" state="M"/>
    <connection from="E29" to="E30" fromLane="0" toLane="0" via=":J32_2_0" dir="s" state="M"/>
    <connection from="E29" to="E30" fromLane="1" toLane="1" via=":J32_2_1" dir="s" state="M"/>
    <connection from="E29" to="E30" fromLane="2" toLane="2" via=":J32_2_2" dir="s" state="M"/>
    <connection from="E30" to="E31" fromLane="0" toLane="0" via=":J21_3_0" tl="J21" linkIndex="3" dir="s" state="O"/>
    <connection from="E30" to="E31" fromLane="1" toLane="1" via=":J21_3_1" tl="J21" linkIndex="4" dir="s" state="O"/>
    <connection from="E30" to="E31" fromLane="2" toLane="2" via=":J21_3_2" tl="J21" linkIndex="5" dir="s" state="O"/>
    <connection from="E31" to="E24" fromLane="0" toLane="0" via=":J34_0_0" dir="l" state="M"/>
    <connection from="E31" to="E32" fromLane="1" toLane="1" via=":J34_1_0" dir="s" state="M"/>
    <connection from="E31" to="E32" fromLane="1" toLane="2" via=":J34_1_1" dir="s" state="M"/>
    <connection from="E31" to="E32" fromLane="2" toLane="3" via=":J34_1_2" dir="s" state="M"/>
    <connection from="E32" to="E25" fromLane="0" toLane="0" via=":J20_0_0" tl="J20" linkIndex="0" dir="s" state="O"/>
    <connection from="E32" to="E25" fromLane="1" toLane="1" via=":J20_0_1" tl="J20" linkIndex="1" dir="s" state="O"/>
    <connection from="E32" to="E25" fromLane="2" toLane="2" via=":J20_0_2" tl="J20" linkIndex="2" dir="s" state="O"/>
    <connection from="E32" to="E25" fromLane="3" toLane="3" via=":J20_0_3" tl="J20" linkIndex="3" dir="s" state="O"/>
    <connection from="E8" to="E31" fromLane="0" toLane="0" via=":J21_0_0" tl="J21" linkIndex="0" dir="l" state="o" visibility="9.00"/>
    <connection from="E8" to="E31" fromLane="1" toLane="1" via=":J21_0_1" tl="J21" linkIndex="1" dir="l" state="o" visibility="9.00"/>
    <connection from="E8" to="E31" fromLane="2" toLane="2" via=":J21_0_2" tl="J21" linkIndex="2" dir="l" state="o" visibility="9.00"/>
    <connection from="E9" to="E25" fromLane="0" toLane="0" via=":J20_4_0" tl="J20" linkIndex="4" dir="l" state="o" visibility="9.00"/>
    <connection from="E9" to="E25" fromLane="1" toLane="1" via=":J20_4_1" tl="J20" linkIndex="5" dir="l" state="o" visibility="9.00"/>
    <connection from="E9" to="E25" fromLane="2" toLane="2" via=":J20_4_2" tl="J20" linkIndex="6" dir="l" state="o" visibility="9.00"/>
    <connection from="E9" to="E25" fromLane="2" toLane="3" via=":J20_4_3" tl="J20" linkIndex="7" dir="l" state="o" visibility="9.00"/>

    <connection from=":J20_0" to="E25" fromLane="0" toLane="0" dir="s" state="M"/>
    <connection from=":J20_0" to="E25" fromLane="1" toLane="1" dir="s" state="M"/>
    <connection from=":J20_0" to="E25" fromLane="2" toLane="2" dir="s" state="M"/>
    <connection from=":J20_0" to="E25" fromLane="3" toLane="3" dir="s" state="M"/>
    <connection from=":J20_4" to="E25" fromLane="0" toLane="0" dir="l" state="M"/>
    <connection from=":J20_4" to="E25" fromLane="1" toLane="1" dir="l" state="M"/>
    <connection from=":J20_4" to="E25" fromLane="2" toLane="2" dir="l" state="M"/>
    <connection from=":J20_4" to="E25" fromLane="3" toLane="3" dir="l" state="M"/>
    <connection from=":J21_0" to="E31" fromLane="0" toLane="0" dir="l" state="M"/>
    <connection from=":J21_0" to="E31" fromLane="1" toLane="1" dir="l" state="M"/>
    <connection from=":J21_0" to="E31" fromLane="2" toLane="2" dir="l" state="M"/>
    <connection from=":J21_3" to="E31" fromLane="0" toLane="0" dir="s" state="M"/>
    <connection from=":J21_3" to="E31" fromLane="1" toLane="1" dir="s" state="M"/>
    <connection from=":J21_3" to="E31" fromLane="2" toLane="2" dir="s" state="M"/>
    <connection from=":J22_0" to="E28" fromLane="0" toLane="0" dir="l" state="M"/>
    <connection from=":J22_0" to="E28" fromLane="1" toLane="1" dir="l" state="M"/>
    <connection from=":J22_0" to="E28" fromLane="2" toLane="2" dir="l" state="M"/>
    <connection from=":J22_3" to="E28" fromLane="0" toLane="1" dir="s" state="M"/>
    <connection from=":J22_3" to="E28" fromLane="1" toLane="2" dir="s" state="M"/>
    <connection from=":J23_0" to="E26" fromLane="0" toLane="0" dir="l" state="M"/>
    <connection from=":J23_0" to="E26" fromLane="1" toLane="1" dir="l" state="M"/>
    <connection from=":J23_0" to="E26" fromLane="2" toLane="2" dir="l" state="M"/>
    <connection from=":J23_0" to="E26" fromLane="3" toLane="3" dir="l" state="M"/>
    <connection from=":J23_4" to="E26" fromLane="0" toLane="0" dir="s" state="M"/>
    <connection from=":J23_4" to="E26" fromLane="1" toLane="1" dir="s" state="M"/>
    <connection from=":J23_4" to="E26" fromLane="2" toLane="2" dir="s" state="M"/>
    <connection from=":J23_4" to="E26" fromLane="3" toLane="3" dir="s" state="M"/>
    <connection from=":J28_0" to="E21" fromLane="0" toLane="0" dir="l" state="M"/>
    <connection from=":J28_0" to="E21" fromLane="1" toLane="1" dir="l" state="M"/>
    <connection from=":J28_2" to="E27" fromLane="0" toLane="0" dir="s" state="M"/>
    <connection from=":J28_2" to="E27" fromLane="1" toLane="1" dir="s" state="M"/>
    <connection from=":J30_0" to="E22" fromLane="0" toLane="0" dir="l" state="M"/>
    <connection from=":J30_1" to="E29" fromLane="0" toLane="1" dir="s" state="M"/>
    <connection from=":J30_1" to="E29" fromLane="1" toLane="2" dir="s" state="M"/>
    <connection from=":J32_0" to="E23" fromLane="0" toLane="0" dir="s" state="M"/>