<?xml version="1.0" encoding="UTF-8"?>
<routes>
                <vType accel="1.0" decel="4.5" id="standard_car" length="5.0" minGap="2.5" maxSpeed="25" sigma="0.5" />

                <route id="W_N" edges="E9 E25 E26 E21"/>
                <route id="W_E" edges="E9 E25 E26 E27 E28 E22"/>
                <route id="W_S" edges="E9 E25 E26 E27 E28 E29 E23"/>
                <route id="W_3" edges="E9 E25 E26 E27 E28 E29 E30 E31 E24"/>
                <route id="N_W" edges="E10 E26 E27 E28 E22"/>
                <route id="N_E" edges="E10 E26 E27 E28 E29 E23"/>
                <route id="N_S" edges="E10 E26 E27 E28 E29 E30 E31 E24"/>
                <route id="E_W" edges="E11 E28 E29 E30 E31 E32 E25 E26 E21"/>
                <route id="E_N" edges="E11 E28 E22"/>
                <route id="E_3" edges="E11 E28 E29 E23"/>
                <route id="E_S" edges="E11 E28 E29 E30 E31 E24"/>
                <route id="S_W" edges="E8 E31 E32 E25 E26 E21"/>
                <route id="S_3" edges="E8 E31 E32 E25 E26 E27 E28 E22"/>
                <route id="S_N" edges="E8 E31 E32 E25 E26 E27 E28 E29 E23"/>
                <route id="S_E" edges="E8 E31 E24"/>
    <vehicle id="N_W_0" type="standard_car" route="N_W" depart="73.0" departLane="random" departSpeed="10" />
    <vehicle id="S_E_1" type="standard_car" route="S_E" depart="133.0" departLane="random" departSpeed="10" />
    <vehicle id="W_S_2" type="standard_car" route="W_S" depart="173.0" departLane="random" departSpeed="10" />
    <vehicle id="S_W_3" type="standard_car" route="S_W" depart="191.0" departLane="random" departSpeed="10" />
    <vehicle id="S_W_4" type="standard_car" route="S_W" depart="223.0" departLane="random" departSpeed="10" />
    <vehicle id="W_E_5" type="standard_car" route="W_E" depart="235.0" departLane="random" departSpeed="10" />
    <vehicle id="N_S_6" type="standard_car" route="N_S" depart="246.0" departLane="random" departSpeed="10" />
    <vehicle id="E_W_7" type="standard_car" route="E_W" depart="276.0" departLane="random" departSpeed="10" />
    <vehicle id="E_S_8" type="standard_car" route="E_S" depart="277.0" departLane="random" departSpeed="10" />
    <vehicle id="S_E_9" type="standard_car" route="S_E" depart="287.0" departLane="random" departSpeed="10" />
    <vehicle id="N_W_10" type="standard_car" route="N_W" depart="304.0" departLane="random" departSpeed="10" />
    <vehicle id="E_W_11" type="standard_car" route="E_W" depart="309.0" departLane="random" departSpeed="10" />
    <vehicle id="S_E_12" type="standard_car" route="S_E" depart="319.0" departLane="random" departSpeed="10" />
    <vehicle id="N_W_13" type="standard_car" route="N_W" depart="335.0" departLane="random" departSpeed="10" />
    <vehicle id="W_E_14" type="standard_car" route="W_E" depart="355.0" departLane="random" departSpeed="10" />
    <vehicle id="E_S_15" type="standard_car" route="E_S" depart="362.0" departLane="random" departSpeed="10" />
    <vehicle id="E_W_16" type="standard_car" route="E_W" depart="363.0" departLane="random" departSpeed="10" />
    <vehicle id="E_W_17" type="standard_car" route="E_W" depart="365.0" departLane="random" departSpeed="10" />
    <vehicle id="S_E_18" type="standard_car" route="S_E" depart="370.0" departLane="random" departSpeed="10" />
    <vehicle id="W_E_19" type="standard_car" route="W_E" depart="380.0" departLane="random" departSpeed="10" />
    <vehicle id="S_W_20" type="standard_car" route="S_W" depart="385.0" departLane="random" departSpeed="10" />
    <vehicle id="E_N_21" type="standard_car" route="E_N" depart="397.0" departLane="random" departSpeed="10" />
    <vehicle id="N_S_22" type="standard_car" route="N_S" depart="402.0" departLane="random" departSpeed="10" />
    <vehicle id="N_S_23" type="standard_car" route="N_S" depart="419.0" departLane="random" departSpeed="10" />
    <vehicle id="S_E_24" type="standard_car" route="S_E" depart="420.0" departLane="random" departSpeed="10" />
    <vehicle id="N_S_25" type="standard_car" route="N_S" depart="421.0" departLane="random" departSpeed="10" />
    <vehicle id="S_N_26" type="standard_car" route="S_N" depart="422.0" departLane="random" departSpeed="10" />
    <vehicle id="W_E_27" type="standard_car" route="W_E" depart="436.0" departLane="random" departSpeed="10" />
    <vehicle id="E_W_28" type="standard_car" route="E_W" depart="437.0" departLane="random" departSpeed="10" />
    <vehicle id="S_N_29" type="standard_car" route="S_N" depart="450.0" departLane="random" departSpeed="10" />
    <vehicle id="S_W_30" type="standard_car" route="S_W" depart="463.0" departLane="random" departSpeed="10" />
    <vehicle id="N_S_31" type="standard_car" route="N_S" depart="467.0" departLane="random" departSpeed="10" />
    <vehicle id="N_E_32" type="standard_car" route="N_E" depart="469.0" departLane="random" departSpeed="10" />
    <vehicle id="N_W_33" type="standard_car" route="N_W" depart="471.0" departLane="random" departSpeed="10" />
    <vehicle id="E_S_34" type="standard_car" route="E_S" depart="474.0" departLane="random" departSpeed="10" />
    <vehicle id="W_E_35" type="standard_car" route="W_E" depart="475.0" departLane="random" departSpeed="10" />
    <vehicle id="W_E_36" type="standard_car" route="W_E" depart="477.0" departLane="random" departSpeed="10" />
    <vehicle id="E_S_37" type="standard_car" route="E_S" depart="488.0" departLane="random" departSpeed="10" />
    <vehicle id="S_W_38" type="standard_car" route="S_W" depart="490.0" departLane="random" departSpeed="10" />
    <vehicle id="S_E_39" type="standard_car" route="S_E" depart="492.0" departLane="random" departSpeed="10" />
    <vehicle id="W_E_40" type="standard_car" route="W_E" depart="493.0" departLane="random" departSpeed="10" />
    <vehicle id="W_E_41" type="standard_car" route="W_E" depart="499.0" departLane="random" departSpeed="10" />
    <vehicle id="E_W_42" type="standard_car" route="E_W" depart="500.0" departLane="random" departSpeed="10" />
    <vehicle id="E_S_43" type="standard_car" route="E_S" depart="506.0" departLane="random" departSpeed="10" />
    <vehicle id="E_W_44" type="standard_car" route="E_W" depart="511.0" departLane="random" departSpeed="10" />
    <vehicle id="S_N_45" type="standard_car" route="S_N" depart="515.0" departLane="random" departSpeed="10" />
    <vehicle id="S_E_46" type="standard_car" route="S_E" depart="518.0" departLane="random" departSpeed="10" />
    <vehicle id="W_S_47" type="standard_car" route="W_S" depart="519.0" departLane="random" departSpeed="10" />
    <vehicle id="S_W_48" type="standard_car" route="S_W" depart="528.0" departLane="random" departSpeed="10" />
    <vehicle id="E_W_49" type="standard_car" route="E_W" depart="540.0" departLane="random" departSpeed="10" />
    <vehicle id="W_N_50" type="standard_car" route="W_N" depart="547.0" departLane="random" departSpeed="10" />
    <vehicle id="W_S_51" type="standard_car" route="W_S" depart="551.0" departLane="random" departSpeed="10" />
    <vehicle id="N_E_52" type="standard_car" route="N_E" depart="556.0" departLane="random" departSpeed="10" />
    <vehicle id="W_N_53" type="standard_car" route="W_N" depart="567.0" departLane="random" departSpeed="10" />
    <vehicle id="W_S_54" type="standard_car" route="W_S" depart="567.0" departLane="random" departSpeed="10" />
    <vehicle id="N_E_55" type="standard_car" route="N_E" depart="568.0" departLane="random" departSpeed="10" />
    <vehicle id="S_E_56" type="standard_car" route="S_E" depart="572.0" departLane="random" departSpeed="10" />
    <vehicle id="S_W_57" type="standard_car" route="S_W" depart="574.0" departLane="random" departSpeed="10" />
    <vehicle id="N_S_58" type="standard_car" route="N_S" depart="574.0" departLane="random" departSpeed="10" />
    <vehicle id="W_E_59" type="standard_car" route="W_E" depart="577.0" departLane="random" departSpeed="10" />
    <vehicle id="E_S_60" type="standard_car" route="E_S" depart="578.0" departLane="random" departSpeed="10" />
    <vehicle id="N_S_61" type="standard_car" route="N_S" depart="580.0" departLane="random" departSpeed="10" />
    <vehicle id="W_S_62" type="standard_car" route="W_S" depart="580.0" departLane="random" departSpeed="10" />
    <vehicle id="W_E_63" type="standard_car" route="W_E" depart="582.0" departLane="random" departSpeed="10" />
    <vehicle id="E_N_64" type="standard_car" route="E_N" depart="592.0" departLane="random" departSpeed="10" />
    <vehicle id="W_E_65" type="standard_car" route="W_E" depart="595.0" departLane="random" departSpeed="10" />
    <vehicle id="N_S_66" type="standard_car" route="N_S" depart="601.0" departLane="random" departSpeed="10" />
    <vehicle id="W_S_67" type="standard_car" route="W_S" depart="604.0" departLane="random" departSpeed="10" />
    <vehicle id="N_W_68" type="standard_car" route="N_W" depart="610.0" departLane="random" departSpeed="10" />
    <vehicle id="E_W_69" type="standard_car" route="E_W" depart="611.0" departLane="random" departSpeed="10" />
    <vehicle id="S_E_70" type="standard_car" route="S_E" depart="613.0" departLane="random" departSpeed="10" />
    <vehicle id="S_E_71" type="standard_car" route="S_E" depart="614.0" departLane="random" departSpeed="10" />
    <vehicle id="E_W_72" type="standard_car" route="E_W" depart="621.0" departLane="random" departSpeed="10" />
    <vehicle id="W_E_73" type="standard_car" route="W_E" depart="623.0" departLane="random" departSpeed="10" />
    <vehicle id="W_S_74" type="standard_car" route="W_S" depart="628.0" departLane="random" departSpeed="10" />
    <vehicle id="W_E_75" type="standard_car" route="W_E" depart="633.0" departLane="random" departSpeed="10" />
    <vehicle id="S_W_76" type="standard_car" route="S_W" depart="633.0" departLane="random" departSpeed="10" />
    <vehicle id="S_W_77" type="standard_car" route="S_W" depart="639.0" departLane="random" departSpeed="10" />
    <vehicle id="W_E_78" type="standard_car" route="W_E" depart="641.0" departLane="random" departSpeed="10" />
    <vehicle id="S_N_79" type="standard_car" route="S_N" depart="647.0" departLane="random" departSpeed="10" />
    <vehicle id="E_W_80" type="standard_car" route="E_W" depart="650.0" departLane="random" departSpeed="10" />
    <vehicle id="W_N_81" type="standard_car" route="W_N" depart="650.0" departLane="random" departSpeed="10" />
    <vehicle id="E_W_82" type="standard_car" route="E_W" depart="653.0" departLane="random" departSpeed="10" />
    <vehicle id="S_N_83" type="standard_car" route="S_N" depart="656.0" departLane="random" departSpeed="10" />
    <vehicle id="E_W_84" type="standard_car" route="E_W" depart="660.0" departLane="random" departSpeed="10" />
    <vehicle id="N_S_85" type="standard_car" route="N_S" depart="665.0" departLane="random" departSpeed="10" />
    <vehicle id="E_S_86" type="standard_car" route="E_S" depart="667.0" departLane="random" departSpeed="10" />
    <vehicle id="E_N_87" type="standard_car" route="E_N" depart="670.0" departLane="random" departSpeed="10" />
    <vehicle id="S_N_88" type="standard_car" route="S_N" depart="673.0" departLane="random" departSpeed="10" />
    <vehicle id="E_W_89" type="standard_car" route="E_W" depart="674.0" departLane="random" departSpeed="10" />
    <vehicle id="S_N_90" type="standard_car" route="S_N" depart="675.0" departLane="random" departSpeed="10" />
    <vehicle id="E_W_91" type="standard_car" route="E_W" depart="677.0" departLane="random" departSpeed="10" />
    <vehicle id="E_W_92" type="standard_car" route="E_W" depart="680.0" departLane="random" departSpeed="10" />
    <vehicle id="N_E_93" type="standard_car" route="N_E" depart="681.0" departLane="random" departSpeed="10" />
    <vehicle id="W_E_94" type="standard_car" route="W_E" depart="683.0" departLane="random" departSpeed="10" />
    <vehicle id="N_S_95" type="standard_car" route="N_S" depart="684.0" departLane="random" departSpeed="10" />
    <vehicle id="W_S_96" type="standard_car" route="W_S" depart="685.0" departLane="random" departSpeed="10" />
    <vehicle id="N_W_97" type="standard_car" route="N_W" depart="686.0" departLane="random" departSpeed="10" />
    <vehicle id="S_N_98" type="standard_car" route="S_N" depart="691.0" departLane="random" departSpeed="10" />
    <vehicle id="S_E_99" type="standard_car" route="S_E" depart="691.0" departLane="random" departSpeed="10" />
    <vehicle id="E_S_100" type="standard_car" route="E_S" depart="694.0" departLane="random" departSpeed="10" />
    <vehicle id="N_S_101" type="standard_car" route="N_S" depart="701.0" departLane="random" departSpeed="10" />
    <vehicle id="W_N_102" type="standard_car" route="W_N" depart="703.0" departLane="random" departSpeed="10" />
    <vehicle id="N_W_103" type="standard_car" route="N_W" depart="704.0" departLane="random" departSpeed="10" />
    <vehicle id="W_N_104" type="standard_car" route="W_N" depart="705.0" departLane="random" departSpeed="10" />
    <vehicle id="N_S_105" type="standard_car" route="N_S" depart="707.0" departLane="random" departSpeed="10" />
    <vehicle id="S_E_106" type="standard_car" route="S_E" depart="708.0" departLane="random" departSpeed="10" />
    <vehicle id="S_N_107" type="standard_car" route="S_N" depart="708.0" departLane="random" departSpeed="10" />
    <vehicle id="W_E_108" type="standard_car" route="W_E" depart="708.0" departLane="random" departSpeed="10" />
    <vehicle id="E_S_109" type="standard_car" route="E_S" depart="717.0" departLane="random" departSpeed="10" />
    <vehicle id="N_S_110" type="standard_car" route="N_S" depart="718.0" departLane="random" departSpeed="10" />
    <vehicle id="W_E_111" type="standard_car" route="W_E" depart="719.0" departLane="random" departSpeed="10" />
    <vehicle id="N_S_112" type="standard_car" route="N_S" depart="719.0" departLane="random" departSpeed="10" />
    <vehicle id="W_E_113" type="standard_car" route="W_E" depart="721.0" departLane="random" departSpeed="10" />
    <vehicle id="W_S_114" type="standard_car" route="W_S" depart="722.0" departLane="random" departSpeed="10" />
    <vehicle id="W_E_115" type="standard_car" route="W_E" depart="723.0" departLane="random" departSpeed="10" />
    <vehicle id="W_S_116" type="standard_car" route="W_S" depart="723.0" departLane="random" departSpeed="10" />
    <vehicle id="S_N_117" type="standard_car" route="S_N" depart="723.0" departLane="random" departSpeed="10" />
    <vehicle id="E_W_118" type="standard_car" route="E_W" depart="724.0" departLane="random" departSpeed="10" />
    <vehicle id="N_W_119" type="standard_car" route="N_W" depart="728.0" departLane="random" departSpeed="10" />
    <vehicle id="S_N_120" type="standard_car" route="S_N" depart="729.0" departLane="random" departSpeed="10" />
    <vehicle id="W_N_121" type="standard_car" route="W_N" depart="732.0" departLane="random" departSpeed="10" />
    <vehicle id="W_E_122" type="standard_car" route="W_E" depart="741.0" departLane="random" departSpeed="10" />
    <vehicle id="E_N_123" type="standard_car" route="E_N" depart="752.0" departLane="random" departSpeed="10" />
    <vehicle id="N_S_124" type="standard_car" route="N_S" depart="754.0" departLane="random" departSpeed="10" />
    <vehicle id="N_W_125" type="standard_car" route="N_W" depart="757.0" departLane="random" departSpeed="10" />
    <vehicle id="N_E_126" type="standard_car" route="N_E" depart="759.0" departLane="random" departSpeed="10" />
    <vehicle id="S_W_127" type="standard_car" route="S_W" depart="763.0" departLane="random" departSpeed="10" />
    <vehicle id="E_S_128" type="standard_car" route="E_S" depart="767.0" departLane="random" departSpeed="10" />
    <vehicle id="E_W_129" type="standard_car" route="E_W" depart="767.0" departLane="random" departSpeed="10" />
    <vehicle id="E_W_130" type="standard_car" route="E_W" depart="776.0" departLane="random" departSpeed="10" />
    <vehicle id="S_N_131" type="standard_car" route="S_N" depart="778.0" departLane="random" departSpeed="10" />
    <vehicle id="W_S_132" type="standard_car" route="W_S" depart="780.0" departLane="random" departSpeed="10" />
    <vehicle id="E_W_133" type="standard_car" route="E_W" depart="780.0" departLane="random" departSpeed="10" />
    <vehicle id="W_E_134" type="standard_car" route="W_E" depart="791.0" departLane="random" departSpeed="10" />
    <vehicle id="S_W_135" type="standard_car" route="S_W" depart="792.0" departLane="random" departSpeed="10" />
    <vehicle id="E_W_136" type="standard_car" route="E_W" depart="794.0" departLane="random" departSpeed="10" />
    <vehicle id="S_W_137" type="standard_car" route="S_W" depart="794.0" departLane="random" departSpeed="10" />
    <vehicle id="W_E_138" type="standard_car" route="W_E" depart="798.0" departLane="random" departSpeed="10" />
    <vehicle id="E_N_139" type="standard_car" route="E_N" depart="804.0" departLane="random" departSpeed="10" />
    <vehicle id="S_N_140" type="standard_car" route="S_N" depart="805.0" departLane="random" departSpeed="10" />
    <vehicle id="S_E_141" type="standard_car" route="S_E" depart="806.0" departLane="random" departSpeed="10" />
    <vehicle id="W_N_142" type="standard_car" route="W_N" depart="807.0" departLane="random" departSpeed="10" />
    <vehicle id="W_E_143" type="standard_car" route="W_E" depart="807.0" departLane="random" departSpeed="10" />
    <vehicle id="E_W_144" type="standard_car" route="E_W" depart="810.0" departLane="random" departSpeed="10" />
    <vehicle id="S_N_145" type="standard_car" route="S_N" depart="812.0" departLane="random" departSpeed="10" />
    <vehicle id="W_E_146" type="standard_car" route="W_E" depart="815.0" departLane="random" departSpeed="10" />
    <vehicle id="S_N_147" type="standard_car" route="S_N" depart="815.0" departLane="random" departSpeed="10" />
    <vehicle id="E_S_148" type="standard_car" route="E_S" depart="817.0" departLane="random" departSpeed="10" />
    <vehicle id="W_E_149" type="standard_car" route="W_E" depart="819.0" departLane="random" departSpeed="10" />
    <vehicle id="W_S_150" type="standard_car" route="W_S" depart="820.0" departLane="random" departSpeed="10" />
    <vehicle id="E_N_151" type="standard_car" route="E_N" depart="820.0" departLane="random" departSpeed="10" />
    <vehicle id="W_S_152" type="standard_car" route="W_S" depart="821.0" departLane="random" departSpeed="10" />
    <vehicle id="S_W_153" type="standard_car" route="S_W" depart="823.0" departLane="random" departSpeed="10" />
    <vehicle id="S_E_154" type="standard_car" route="S_E" depart="823.0" departLane="random" departSpeed="10" />
    <vehicle id="S_E_155" type="standard_car" route="S_E" depart="825.0" departLane="random" departSpeed="10" />
    <vehicle id="E_N_156" type="standard_car" route="E_N" depart="827.0" departLane="random" departSpeed="10" />
    <vehicle id="S_N_157" type="standard_car" route="S_N" depart="828.0" departLane="random" departSpeed="10" />
    <vehicle id="N_W_158" type="standard_car" route="N_W" depart="829.0" departLane="random" departSpeed="10" />
    <vehicle id="W_E_159" type="standard_car" route="W_E" depart="829.0" departLane="random" departSpeed="10" />
    <vehicle id="E_N_160" type="standard_car" route="E_N" depart="830.0" departLane="random" departSpeed="10" />
    <vehicle id="W_E_161" type="standard_car" route="W_E" depart="831.0" departLane="random" departSpeed="10" />
    <vehicle id="S_E_162" type="standard_car" route="S_E" depart="835.0" departLane="random" departSpeed="10" />
    <vehicle id="E_N_163" type="standard_car" route="E_N" depart="837.0" departLane="random" departSpeed="10" />
    <vehicle id="N_E_164" type="standard_car" route="N_E" depart="839.0" departLane="random" departSpeed="10" />
    <vehicle id="E_N_165" type="standard_car" route="E_N" depart="839.0" departLane="random" departSpeed="10" />
    <vehicle id="N_W_166" type="standard_car" route="N_W" depart="841.0" departLane="random" departSpeed="10" />
    <vehicle id="W_E_167" type="standard_car" route="W_E" depart="844.0" departLane="random" departSpeed="10" />
    <vehicle id="W_E_168" type="standard_car" route="W_E" depart="845.0" departLane="random" departSpeed="10" />
    <vehicle id="S_E_169" type="standard_car" route="S_E" depart="849.0" departLane="random" departSpeed="10" />
    <vehicle id="W_N_170" type="standard_car" route="W_N" depart="850.0" departLane="random" departSpeed="10" />
    <vehicle id="W_N_171" type="standard_car" route="W_N" depart="851.0" departLane="random" departSpeed="10" />
    <vehicle id="N_S_172" type="standard_car" route="N_S" depart="851.0" departLane="random" departSpeed="10" />
    <vehicle id="N_S_173" type="standard_car" route="N_S" depart="856.0" departLane="random" departSpeed="10" />
    <vehicle id="N_E_174" type="standard_car" route="N_E" depart="863.0" departLane="random" departSpeed="10" />
    <vehicle id="N_S_175" type="standard_car" route="N_S" depart="864.0" departLane="random" departSpeed="10" />
    <vehicle id="W_S_176" type="standard_car" route="W_S" depart="865.0" departLane="random" departSpeed="10" />
    <vehicle id="W_E_177" type="standard_car" route="W_E" depart="867.0" departLane="random" departSpeed="10" />
    <vehicle id="N_E_178" type="standard_car" route="N_E" depart="873.0" departLane="random" departSpeed="10" />
    <vehicle id="S_W_179" type="standard_car" route="S_W" depart="873.0" departLane="random" departSpeed="10" />
    <vehicle id="W_E_180" type="standard_car" route="W_E" depart="874.0" departLane="random" departSpeed="10" />
    <vehicle id="W_E_181" type="standard_car" route="W_E" depart="875.0" departLane="random" departSpeed="10" />
    <vehicle id="W_E_182" type="standard_car" route="W_E" depart="878.0" departLane="random" departSpeed="10" />
    <vehicle id="N_E_183" type="standard_car" route="N_E" depart="880.0" departLane="random" departSpeed="10" />
    <vehicle id="S_E_184" type="standard_car" route="S_E" depart="881.0" departLane="random" departSpeed="10" />
    <vehicle id="E_N_185" type="standard_car" route="E_N" depart="884.0" departLane="random" departSpeed="10" />
    <vehicle id="S_W_186" type="standard_car" route="S_W" depart="892.0" departLane="random" departSpeed="10" />
    <vehicle id="W_N_187" type="standard_car" route="W_N" depart="893.0" departLane="random" departSpeed="10" />
    <vehicle id="S_N_188" type="standard_car" route="S_N" depart="896.0" departLane="random" departSpeed="10" />
    <vehicle id="N_S_189" type="standard_car" route="N_S" depart="896.0" departLane="random" departSpeed="10" />
    <vehicle id="N_W_190" type="standard_car" route="N_W" depart="900.0" departLane="random" departSpeed="10" />
    <vehicle id="E_W_191" type="standard_car" route="E_W" depart="901.0" departLane="random" departSpeed="10" />
    <vehicle id="S_E_192" type="standard_car" route="S_E" depart="903.0" departLane="random" departSpeed="10" />
    <vehicle id="N_E_193" type="standard_car" route="N_E" depart="906.0" departLane="random" departSpeed="10" />
    <vehicle id="W_E_194" type="standard_car" route="W_E" depart="908.0" departLane="random" departSpeed="10" />
    <vehicle id="S_N_195" type="standard_car" route="S_N" depart="908.0" departLane="random" departSpeed="10" />
    <vehicle id="W_E_196" type="standard_car" route="W_E" depart="909.0" departLane="random" departSpeed="10" />
    <vehicle id="E_W_197" type="standard_car" route="E_W" depart="911.0" departLane="random" departSpeed="10" />
    <vehicle id="E_W_198" type="standard_car" route="E_W" depart="915.0" departLane="random" departSpeed="10" />
    <vehicle id="S_N_199" type="standard_car" route="S_N" depart="925.0" departLane="random" departSpeed="10" />
</routes>