<?xml version="1.0" encoding="UTF-8"?>
<routes>
                <vType accel="1.0" decel="4.5" id="standard_car" length="5.0" minGap="2.5" maxSpeed="25" sigma="0.5" />

                <route id="W_N" edges="E9 E25 E26 E21"/>
                <route id="W_E" edges="E9 E25 E26 E27 E28 E22"/>
                <route id="W_S" edges="E9 E25 E26 E27 E28 E29 E23"/>
                <route id="W_3" edges="E9 E25 E26 E27 E28 E29 E30 E31 E24"/>
                <route id="N_W" edges="E10 E26 E27 E28 E22"/>
                <route id="N_E" edges="E10 E26 E27 E28 E29 E23"/>
                <route id="N_S" edges="E10 E26 E27 E28 E29 E30 E31 E24"/>
                <route id="E_W" edges="E11 E28 E29 E30 E31 E32 E25 E26 E21"/>
                <route id="E_N" edges="E11 E28 E22"/>
                <route id="E_3" edges="E11 E28 E29 E23"/>
                <route id="E_S" edges="E11 E28 E29 E30 E31 E24"/>
                <route id="S_W" edges="E8 E31 E32 E25 E26 E21"/>
                <route id="S_3" edges="E8 E31 E32 E25 E26 E27 E28 E22"/>
                <route id="S_N" edges="E8 E31 E32 E25 E26 E27 E28 E29 E23"/>
                <route id="S_E" edges="E8 E31 E24"/>
    <vehicle id="N_W_0" type="standard_car" route="N_W" depart="11.0" departLane="random" departSpeed="10" />
    <vehicle id="W_N_1" type="standard_car" route="W_N" depart="67.0" departLane="random" departSpeed="10" />
    <vehicle id="E_W_2" type="standard_car" route="E_W" depart="162.0" departLane="random" departSpeed="10" />
    <vehicle id="W_E_3" type="standard_car" route="W_E" depart="217.0" departLane="random" departSpeed="10" />
    <vehicle id="S_N_4" type="standard_car" route="S_N" depart="237.0" departLane="random" departSpeed="10" />
    <vehicle id="S_N_5" type="standard_car" route="S_N" depart="250.0" departLane="random" departSpeed="10" />
    <vehicle id="S_N_6" type="standard_car" route="S_N" depart="251.0" departLane="random" departSpeed="10" />
    <vehicle id="W_E_7" type="standard_car" route="W_E" depart="267.0" departLane="random" departSpeed="10" />
    <vehicle id="E_N_8" type="standard_car" route="E_N" depart="277.0" departLane="random" departSpeed="10" />
    <vehicle id="N_E_9" type="standard_car" route="N_E" depart="287.0" departLane="random" departSpeed="10" />
    <vehicle id="W_S_10" type="standard_car" route="W_S" depart="306.0" departLane="random" departSpeed="10" />
    <vehicle id="E_W_11" type="standard_car" route="E_W" depart="317.0" departLane="random" departSpeed="10" />
    <vehicle id="E_W_12" type="standard_car" route="E_W" depart="327.0" departLane="random" departSpeed="10" />
    <vehicle id="E_W_13" type="standard_car" route="E_W" depart="339.0" departLane="random" departSpeed="10" />
    <vehicle id="W_N_14" type="standard_car" route="W_N" depart="344.0" departLane="random" departSpeed="10" />
    <vehicle id="W_E_15" type="standard_car" route="W_E" depart="357.0" departLane="random" departSpeed="10" />
    <vehicle id="E_W_16" type="standard_car" route="E_W" depart="361.0" departLane="random" departSpeed="10" />
    <vehicle id="N_E_17" type="standard_car" route="N_E" depart="370.0" departLane="random" departSpeed="10" />
    <vehicle id="S_N_18" type="standard_car" route="S_N" depart="373.0" departLane="random" departSpeed="10" />
    <vehicle id="E_W_19" type="standard_car" route="E_W" depart="375.0" departLane="random" departSpeed="10" />
    <vehicle id="S_N_20" type="standard_car" route="S_N" depart="379.0" departLane="random" departSpeed="10" />
    <vehicle id="S_N_21" type="standard_car" route="S_N" depart="387.0" departLane="random" departSpeed="10" />
    <vehicle id="N_S_22" type="standard_car" route="N_S" depart="402.0" departLane="random" departSpeed="10" />
    <vehicle id="S_W_23" type="standard_car" route="S_W" depart="405.0" departLane="random" departSpeed="10" />
    <vehicle id="N_S_24" type="standard_car" route="N_S" depart="407.0" departLane="random" departSpeed="10" />
    <vehicle id="E_N_25" type="standard_car" route="E_N" depart="409.0" departLane="random" departSpeed="10" />
    <vehicle id="W_E_26" type="standard_car" route="W_E" depart="422.0" departLane="random" departSpeed="10" />
    <vehicle id="W_S_27" type="standard_car" route="W_S" depart="428.0" departLane="random" departSpeed="10" />
    <vehicle id="E_S_28" type="standard_car" route="E_S" depart="432.0" departLane="random" departSpeed="10" />
    <vehicle id="S_N_29" type="standard_car" route="S_N" depart="440.0" departLane="random" departSpeed="10" />
    <vehicle id="W_S_30" type="standard_car" route="W_S" depart="441.0" departLane="random" departSpeed="10" />
    <vehicle id="N_S_31" type="standard_car" route="N_S" depart="448.0" departLane="random" departSpeed="10" />
    <vehicle id="N_S_32" type="standard_car" route="N_S" depart="449.0" departLane="random" departSpeed="10" />
    <vehicle id="N_S_33" type="standard_car" route="N_S" depart="454.0" departLane="random" departSpeed="10" />
    <vehicle id="E_N_34" type="standard_car" route="E_N" depart="472.0" departLane="random" departSpeed="10" />
    <vehicle id="S_N_35" type="standard_car" route="S_N" depart="473.0" departLane="random" departSpeed="10" />
    <vehicle id="W_S_36" type="standard_car" route="W_S" depart="477.0" departLane="random" departSpeed="10" />
    <vehicle id="N_S_37" type="standard_car" route="N_S" depart="479.0" departLane="random" departSpeed="10" />
    <vehicle id="E_W_38" type="standard_car" route="E_W" depart="488.0" departLane="random" departSpeed="10" />
    <vehicle id="W_N_39" type="standard_car" route="W_N" depart="490.0" departLane="random" departSpeed="10" />
    <vehicle id="S_E_40" type="standard_car" route="S_E" depart="493.0" departLane="random" departSpeed="10" />
    <vehicle id="W_N_41" type="standard_car" route="W_N" depart="494.0" departLane="random" departSpeed="10" />
    <vehicle id="S_N_42" type="standard_car" route="S_N" depart="495.0" departLane="random" departSpeed="10" />
    <vehicle id="S_N_43" type="standard_car" route="S_N" depart="496.0" departLane="random" departSpeed="10" />
    <vehicle id="S_W_44" type="standard_car" route="S_W" depart="500.0" departLane="random" departSpeed="10" />
    <vehicle id="S_E_45" type="standard_car" route="S_E" depart="508.0" departLane="random" departSpeed="10" />
    <vehicle id="W_N_46" type="standard_car" route="W_N" depart="509.0" departLane="random" departSpeed="10" />
    <vehicle id="W_E_47" type="standard_car" route="W_E" depart="509.0" departLane="random" departSpeed="10" />
    <vehicle id="E_N_48" type="standard_car" route="E_N" depart="510.0" departLane="random" departSpeed="10" />
    <vehicle id="E_S_49" type="standard_car" route="E_S" depart="511.0" departLane="random" departSpeed="10" />
    <vehicle id="N_E_50" type="standard_car" route="N_E" depart="517.0" departLane="random" departSpeed="10" />
    <vehicle id="W_S_51" type="standard_car" route="W_S" depart="518.0" departLane="random" departSpeed="10" />
    <vehicle id="E_W_52" type="standard_car" route="E_W" depart="526.0" departLane="random" departSpeed="10" />
    <vehicle id="N_E_53" type="standard_car" route="N_E" depart="528.0" departLane="random" departSpeed="10" />
    <vehicle id="W_E_54" type="standard_car" route="W_E" depart="533.0" departLane="random" departSpeed="10" />
    <vehicle id="W_N_55" type="standard_car" route="W_N" depart="535.0" departLane="random" departSpeed="10" />
    <vehicle id="N_S_56" type="standard_car" route="N_S" depart="537.0" departLane="random" departSpeed="10" />
    <vehicle id="N_S_57" type="standard_car" route="N_S" depart="538.0" departLane="random" departSpeed="10" />
    <vehicle id="W_E_58" type="standard_car" route="W_E" depart="539.0" departLane="random" departSpeed="10" />
    <vehicle id="S_E_59" type="standard_car" route="S_E" depart="543.0" departLane="random" departSpeed="10" />
    <vehicle id="S_E_60" type="standard_car" route="S_E" depart="545.0" departLane="random" departSpeed="10" />
    <vehicle id="N_W_61" type="standard_car" route="N_W" depart="551.0" departLane="random" departSpeed="10" />
    <vehicle id="S_W_62" type="standard_car" route="S_W" depart="553.0" departLane="random" departSpeed="10" />
    <vehicle id="E_W_63" type="standard_car" route="E_W" depart="558.0" departLane="random" departSpeed="10" />
    <vehicle id="W_S_64" type="standard_car" route="W_S" depart="559.0" departLane="random" departSpeed="10" />
    <vehicle id="N_W_65" type="standard_car" route="N_W" depart="560.0" departLane="random" departSpeed="10" />
    <vehicle id="N_E_66" type="standard_car" route="N_E" depart="561.0" departLane="random" departSpeed="10" />
    <vehicle id="S_E_67" type="standard_car" route="S_E" depart="565.0" departLane="random" departSpeed="10" />
    <vehicle id="S_N_68" type="standard_car" route="S_N" depart="577.0" departLane="random" departSpeed="10" />
    <vehicle id="S_W_69" type="standard_car" route="S_W" depart="591.0" departLane="random" departSpeed="10" />
    <vehicle id="W_E_70" type="standard_car" route="W_E" depart="592.0" departLane="random" departSpeed="10" />
    <vehicle id="E_S_71" type="standard_car" route="E_S" depart="592.0" departLane="random" departSpeed="10" />
    <vehicle id="W_E_72" type="standard_car" route="W_E" depart="598.0" departLane="random" departSpeed="10" />
    <vehicle id="W_E_73" type="standard_car" route="W_E" depart="599.0" departLane="random" departSpeed="10" />
    <vehicle id="N_S_74" type="standard_car" route="N_S" depart="600.0" departLane="random" departSpeed="10" />
    <vehicle id="N_W_75" type="standard_car" route="N_W" depart="601.0" departLane="random" departSpeed="10" />
    <vehicle id="W_N_76" type="standard_car" route="W_N" depart="602.0" departLane="random" departSpeed="10" />
    <vehicle id="W_N_77" type="standard_car" route="W_N" depart="603.0" departLane="random" departSpeed="10" />
    <vehicle id="W_E_78" type="standard_car" route="W_E" depart="603.0" departLane="random" departSpeed="10" />
    <vehicle id="N_S_79" type="standard_car" route="N_S" depart="606.0" departLane="random" departSpeed="10" />
    <vehicle id="E_S_80" type="standard_car" route="E_S" depart="607.0" departLane="random" departSpeed="10" />
    <vehicle id="W_N_81" type="standard_car" route="W_N" depart="610.0" departLane="random" departSpeed="10" />
    <vehicle id="E_W_82" type="standard_car" route="E_W" depart="612.0" departLane="random" departSpeed="10" />
    <vehicle id="W_E_83" type="standard_car" route="W_E" depart="613.0" departLane="random" departSpeed="10" />
    <vehicle id="N_S_84" type="standard_car" route="N_S" depart="614.0" departLane="random" departSpeed="10" />
    <vehicle id="E_W_85" type="standard_car" route="E_W" depart="619.0" departLane="random" departSpeed="10" />
    <vehicle id="N_E_86" type="standard_car" route="N_E" depart="621.0" departLane="random" departSpeed="10" />
    <vehicle id="W_N_87" type="standard_car" route="W_N" depart="622.0" departLane="random" departSpeed="10" />
    <vehicle id="E_W_88" type="standard_car" route="E_W" depart="626.0" departLane="random" departSpeed="10" />
    <vehicle id="S_N_89" type="standard_car" route="S_N" depart="628.0" departLane="random" departSpeed="10" />
    <vehicle id="N_W_90" type="standard_car" route="N_W" depart="633.0" departLane="random" departSpeed="10" />
    <vehicle id="S_E_91" type="standard_car" route="S_E" depart="634.0" departLane="random" departSpeed="10" />
    <vehicle id="W_N_92" type="standard_car" route="W_N" depart="634.0" departLane="random" departSpeed="10" />
    <vehicle id="W_N_93" type="standard_car" route="W_N" depart="634.0" departLane="random" departSpeed="10" />
    <vehicle id="S_E_94" type="standard_car" route="S_E" depart="639.0" departLane="random" departSpeed="10" />
    <vehicle id="S_N_95" type="standard_car" route="S_N" depart="641.0" departLane="random" departSpeed="10" />
    <vehicle id="N_E_96" type="standard_car" route="N_E" depart="644.0" departLane="random" departSpeed="10" />
    <vehicle id="S_N_97" type="standard_car" route="S_N" depart="645.0" departLane="random" departSpeed="10" />
    <vehicle id="S_N_98" type="standard_car" route="S_N" depart="647.0" departLane="random" departSpeed="10" />
    <vehicle id="W_E_99" type="standard_car" route="W_E" depart="651.0" departLane="random" departSpeed="10" />
    <vehicle id="W_E_100" type="standard_car" route="W_E" depart="651.0" departLane="random" departSpeed="10" />
    <vehicle id="E_S_101" type="standard_car" route="E_S" depart="654.0" departLane="random" departSpeed="10" />
    <vehicle id="W_N_102" type="standard_car" route="W_N" depart="656.0" departLane="random" departSpeed="10" />
    <vehicle id="W_E_103" type="standard_car" route="W_E" depart="658.0" departLane="random" departSpeed="10" />
    <vehicle id="E_S_104" type="standard_car" route="E_S" depart="658.0" departLane="random" departSpeed="10" />
    <vehicle id="E_N_105" type="standard_car" route="E_N" depart="659.0" departLane="random" departSpeed="10" />
    <vehicle id="N_S_106" type="standard_car" route="N_S" depart="660.0" departLane="random" departSpeed="10" />
    <vehicle id="E_W_107" type="standard_car" route="E_W" depart="661.0" departLane="random" departSpeed="10" />
    <vehicle id="S_N_108" type="standard_car" route="S_N" depart="661.0" departLane="random" departSpeed="10" />
    <vehicle id="E_W_109" type="standard_car" route="E_W" depart="662.0" departLane="random" departSpeed="10" />
    <vehicle id="S_E_110" type="standard_car" route="S_E" depart="666.0" departLane="random" departSpeed="10" />
    <vehicle id="W_E_111" type="standard_car" route="W_E" depart="667.0" departLane="random" departSpeed="10" />
    <vehicle id="W_S_112" type="standard_car" route="W_S" depart="668.0" departLane="random" departSpeed="10" />
    <vehicle id="S_N_113" type="standard_car" route="S_N" depart="670.0" departLane="random" departSpeed="10" />
    <vehicle id="S_W_114" type="standard_car" route="S_W" depart="670.0" departLane="random" departSpeed="10" />
    <vehicle id="S_N_115" type="standard_car" route="S_N" depart="672.0" departLane="random" departSpeed="10" />
    <vehicle id="N_E_116" type="standard_car" route="N_E" depart="678.0" departLane="random" departSpeed="10" />
    <vehicle id="S_N_117" type="standard_car" route="S_N" depart="678.0" departLane="random" departSpeed="10" />
    <vehicle id="S_W_118" type="standard_car" route="S_W" depart="679.0" departLane="random" departSpeed="10" />
    <vehicle id="N_W_119" type="standard_car" route="N_W" depart="680.0" departLane="random" departSpeed="10" />
    <vehicle id="W_E_120" type="standard_car" route="W_E" depart="680.0" departLane="random" departSpeed="10" />
    <vehicle id="E_S_121" type="standard_car" route="E_S" depart="681.0" departLane="random" departSpeed="10" />
    <vehicle id="E_W_122" type="standard_car" route="E_W" depart="686.0" departLane="random" departSpeed="10" />
    <vehicle id="W_S_123" type="standard_car" route="W_S" depart="686.0" departLane="random" departSpeed="10" />
    <vehicle id="W_S_124" type="standard_car" route="W_S" depart="690.0" departLane="random" departSpeed="10" />
    <vehicle id="N_W_125" type="standard_car" route="N_W" depart="692.0" departLane="random" departSpeed="10" />
    <vehicle id="S_N_126" type="standard_car" route="S_N" depart="697.0" departLane="random" departSpeed="10" />
    <vehicle id="W_N_127" type="standard_car" route="W_N" depart="698.0" departLane="random" departSpeed="10" />
    <vehicle id="N_S_128" type="standard_car" route="N_S" depart="699.0" departLane="random" departSpeed="10" />
    <vehicle id="E_N_129" type="standard_car" route="E_N" depart="700.0" departLane="random" departSpeed="10" />
    <vehicle id="N_W_130" type="standard_car" route="N_W" depart="704.0" departLane="random" departSpeed="10" />
    <vehicle id="E_W_131" type="standard_car" route="E_W" depart="707.0" departLane="random" departSpeed="10" />
    <vehicle id="E_S_132" type="standard_car" route="E_S" depart="707.0" departLane="random" departSpeed="10" />
    <vehicle id="S_W_133" type="standard_car" route="S_W" depart="710.0" departLane="random" departSpeed="10" />
    <vehicle id="S_N_134" type="standard_car" route="S_N" depart="713.0" departLane="random" departSpeed="10" />
    <vehicle id="E_W_135" type="standard_car" route="E_W" depart="717.0" departLane="random" departSpeed="10" />
    <vehicle id="W_E_136" type="standard_car" route="W_E" depart="717.0" departLane="random" departSpeed="10" />
    <vehicle id="N_S_137" type="standard_car" route="N_S" depart="723.0" departLane="random" departSpeed="10" />
    <vehicle id="W_E_138" type="standard_car" route="W_E" depart="726.0" departLane="random" departSpeed="10" />
    <vehicle id="W_E_139" type="standard_car" route="W_E" depart="730.0" departLane="random" departSpeed="10" />
    <vehicle id="E_N_140" type="standard_car" route="E_N" depart="737.0" departLane="random" departSpeed="10" />
    <vehicle id="N_W_141" type="standard_car" route="N_W" depart="740.0" departLane="random" departSpeed="10" />
    <vehicle id="S_W_142" type="standard_car" route="S_W" depart="740.0" departLane="random" departSpeed="10" />
    <vehicle id="E_W_143" type="standard_car" route="E_W" depart="742.0" departLane="random" departSpeed="10" />
    <vehicle id="N_E_144" type="standard_car" route="N_E" depart="743.0" departLane="random" departSpeed="10" />
    <vehicle id="N_S_145" type="standard_car" route="N_S" depart="744.0" departLane="random" departSpeed="10" />
    <vehicle id="S_E_146" type="standard_car" route="S_E" depart="744.0" departLane="random" departSpeed="10" />
    <vehicle id="W_S_147" type="standard_car" route="W_S" depart="748.0" departLane="random" departSpeed="10" />
    <vehicle id="S_E_148" type="standard_car" route="S_E" depart="752.0" departLane="random" departSpeed="10" />
    <vehicle id="E_W_149" type="standard_car" route="E_W" depart="754.0" departLane="random" departSpeed="10" />
    <vehicle id="E_S_150" type="standard_car" route="E_S" depart="756.0" departLane="random" departSpeed="10" />
    <vehicle id="N_E_151" type="standard_car" route="N_E" depart="756.0" departLane="random" departSpeed="10" />
    <vehicle id="E_S_152" type="standard_car" route="E_S" depart="759.0" departLane="random" departSpeed="10" />
    <vehicle id="E_W_153" type="standard_car" route="E_W" depart="761.0" departLane="random" departSpeed="10" />
    <vehicle id="E_W_154" type="standard_car" route="E_W" depart="762.0" departLane="random" departSpeed="10" />
    <vehicle id="W_E_155" type="standard_car" route="W_E" depart="762.0" departLane="random" departSpeed="10" />
    <vehicle id="S_E_156" type="standard_car" route="S_E" depart="765.0" departLane="random" departSpeed="10" />
    <vehicle id="E_S_157" type="standard_car" route="E_S" depart="765.0" departLane="random" departSpeed="10" />
    <vehicle id="W_E_158" type="standard_car" route="W_E" depart="767.0" departLane="random" departSpeed="10" />
    <vehicle id="E_N_159" type="standard_car" route="E_N" depart="767.0" departLane="random" departSpeed="10" />
    <vehicle id="S_W_160" type="standard_car" route="S_W" depart="767.0" departLane="random" departSpeed="10" />
    <vehicle id="N_S_161" type="standard_car" route="N_S" depart="769.0" departLane="random" departSpeed="10" />
    <vehicle id="S_W_162" type="standard_car" route="S_W" depart="775.0" departLane="random" departSpeed="10" />
    <vehicle id="S_W_163" type="standard_car" route="S_W" depart="776.0" departLane="random" departSpeed="10" />
    <vehicle id="S_N_164" type="standard_car" route="S_N" depart="779.0" departLane="random" departSpeed="10" />
    <vehicle id="W_E_165" type="standard_car" route="W_E" depart="782.0" departLane="random" departSpeed="10" />
    <vehicle id="S_E_166" type="standard_car" route="S_E" depart="786.0" departLane="random" departSpeed="10" />
    <vehicle id="E_W_167" type="standard_car" route="E_W" depart="788.0" departLane="random" departSpeed="10" />
    <vehicle id="S_N_168" type="standard_car" route="S_N" depart="788.0" departLane="random" departSpeed="10" />
    <vehicle id="S_N_169" type="standard_car" route="S_N" depart="790.0" departLane="random" departSpeed="10" />
    <vehicle id="S_E_170" type="standard_car" route="S_E" depart="792.0" departLane="random" departSpeed="10" />
    <vehicle id="W_N_171" type="standard_car" route="W_N" depart="792.0" departLane="random" departSpeed="10" />
    <vehicle id="N_W_172" type="standard_car" route="N_W" depart="793.0" departLane="random" departSpeed="10" />
    <vehicle id="E_W_173" type="standard_car" route="E_W" depart="796.0" departLane="random" departSpeed="10" />
    <vehicle id="W_S_174" type="standard_car" route="W_S" depart="798.0" departLane="random" departSpeed="10" />
    <vehicle id="S_W_175" type="standard_car" route="S_W" depart="799.0" departLane="random" departSpeed="10" />
    <vehicle id="E_W_176" type="standard_car" route="E_W" depart="799.0" departLane="random" departSpeed="10" />
    <vehicle id="N_W_177" type="standard_car" route="N_W" depart="800.0" departLane="random" departSpeed="10" />
    <vehicle id="S_N_178" type="standard_car" route="S_N" depart="803.0" departLane="random" departSpeed="10" />
    <vehicle id="S_N_179" type="standard_car" route="S_N" depart="804.0" departLane="random" departSpeed="10" />
    <vehicle id="S_N_180" type="standard_car" route="S_N" depart="806.0" departLane="random" departSpeed="10" />
    <vehicle id="N_S_181" type="standard_car" route="N_S" depart="810.0" departLane="random" departSpeed="10" />
    <vehicle id="S_N_182" type="standard_car" route="S_N" depart="813.0" departLane="random" departSpeed="10" />
    <vehicle id="S_W_183" type="standard_car" route="S_W" depart="814.0" departLane="random" departSpeed="10" />
    <vehicle id="S_E_184" type="standard_car" route="S_E" depart="817.0" departLane="random" departSpeed="10" />
    <vehicle id="W_E_185" type="standard_car" route="W_E" depart="818.0" departLane="random" departSpeed="10" />
    <vehicle id="N_E_186" type="standard_car" route="N_E" depart="820.0" departLane="random" departSpeed="10" />
    <vehicle id="N_W_187" type="standard_car" route="N_W" depart="822.0" departLane="random" departSpeed="10" />
    <vehicle id="N_E_188" type="standard_car" route="N_E" depart="823.0" departLane="random" departSpeed="10" />
    <vehicle id="N_W_189" type="standard_car" route="N_W" depart="826.0" departLane="random" departSpeed="10" />
    <vehicle id="W_E_190" type="standard_car" route="W_E" depart="826.0" departLane="random" departSpeed="10" />
    <vehicle id="N_S_191" type="standard_car" route="N_S" depart="828.0" departLane="random" departSpeed="10" />
    <vehicle id="S_W_192" type="standard_car" route="S_W" depart="829.0" departLane="random" departSpeed="10" />
    <vehicle id="S_E_193" type="standard_car" route="S_E" depart="830.0" departLane="random" departSpeed="10" />
    <vehicle id="N_S_194" type="standard_car" route="N_S" depart="832.0" departLane="random" departSpeed="10" />
    <vehicle id="S_E_195" type="standard_car" route="S_E" depart="833.0" departLane="random" departSpeed="10" />
    <vehicle id="S_W_196" type="standard_car" route="S_W" depart="836.0" departLane="random" departSpeed="10" />
    <vehicle id="W_S_197" type="standard_car" route="W_S" depart="838.0" departLane="random" departSpeed="10" />
    <vehicle id="N_W_198" type="standard_car" route="N_W" depart="840.0" departLane="random" departSpeed="10" />
    <vehicle id="E_N_199" type="standard_car" route="E_N" depart="841.0" departLane="random" departSpeed="10" />
    <vehicle id="E_N_200" type="standard_car" route="E_N" depart="842.0" departLane="random" departSpeed="10" />
    <vehicle id="E_N_201" type="standard_car" route="E_N" depart="843.0" departLane="random" departSpeed="10" />
    <vehicle id="N_S_202" type="standard_car" route="N_S" depart="845.0" departLane="random" departSpeed="10" />
    <vehicle id="S_N_203" type="standard_car" route="S_N" depart="845.0" departLane="random" departSpeed="10" />
    <vehicle id="E_S_204" type="standard_car" route="E_S" depart="847.0" departLane="random" departSpeed="10" />
    <vehicle id="E_W_205" type="standard_car" route="E_W" depart="847.0" departLane="random" departSpeed="10" />
    <vehicle id="E_W_206" type="standard_car" route="E_W" depart="848.0" departLane="random" departSpeed="10" />
    <vehicle id="N_W_207" type="standard_car" route="N_W" depart="849.0" departLane="random" departSpeed="10" />
    <vehicle id="E_N_208" type="standard_car" route="E_N" depart="850.0" departLane="random" departSpeed="10" />
    <vehicle id="N_W_209" type="standard_car" route="N_W" depart="852.0" departLane="random" departSpeed="10" />
    <vehicle id="E_N_210" type="standard_car" route="E_N" depart="852.0" departLane="random" departSpeed="10" />
    <vehicle id="W_S_211" type="standard_car" route="W_S" depart="854.0" departLane="random" departSpeed="10" />
    <vehicle id="E_N_212" type="standard_car" route="E_N" depart="854.0" departLane="random" departSpeed="10" />
    <vehicle id="E_S_213" type="standard_car" route="E_S" depart="855.0" departLane="random" departSpeed="10" />
    <vehicle id="N_S_214" type="standard_car" route="N_S" depart="858.0" departLane="random" departSpeed="10" />
    <vehicle id="E_W_215" type="standard_car" route="E_W" depart="859.0" departLane="random" departSpeed="10" />
    <vehicle id="N_W_216" type="standard_car" route="N_W" depart="860.0" departLane="random" departSpeed="10" />
    <vehicle id="N_S_217" type="standard_car" route="N_S" depart="864.0" departLane="random" departSpeed="10" />
    <vehicle id="E_S_218" type="standard_car" route="E_S" depart="864.0" departLane="random" departSpeed="10" />
    <vehicle id="N_S_219" type="standard_car" route="N_S" depart="866.0" departLane="random" departSpeed="10" />
    <vehicle id="E_S_220" type="standard_car" route="E_S" depart="866.0" departLane="random" departSpeed="10" />
    <vehicle id="W_E_221" type="standard_car" route="W_E" depart="867.0" departLane="random" departSpeed="10" />
    <vehicle id="N_W_222" type="standard_car" route="N_W" depart="871.0" departLane="random" departSpeed="10" />
    <vehicle id="N_S_223" type="standard_car" route="N_S" depart="871.0" departLane="random" departSpeed="10" />
    <vehicle id="E_N_224" type="standard_car" route="E_N" depart="872.0" departLane="random" departSpeed="10" />
    <vehicle id="W_S_225" type="standard_car" route="W_S" depart="875.0" departLane="random" departSpeed="10" />
    <vehicle id="E_N_226" type="standard_car" route="E_N" depart="875.0" departLane="random" departSpeed="10" />
    <vehicle id="E_W_227" type="standard_car" route="E_W" depart="876.0" departLane="random" departSpeed="10" />
    <vehicle id="E_S_228" type="standard_car" route="E_S" depart="879.0" departLane="random" departSpeed="10" />
    <vehicle id="N_W_229" type="standard_car" route="N_W" depart="879.0" departLane="random" departSpeed="10" />
    <vehicle id="E_W_230" type="standard_car" route="E_W" depart="881.0" departLane="random" departSpeed="10" />
    <vehicle id="N_E_231" type="standard_car" route="N_E" depart="887.0" departLane="random" departSpeed="10" />
    <vehicle id="S_W_232" type="standard_car" route="S_W" depart="888.0" departLane="random" departSpeed="10" />
    <vehicle id="N_S_233" type="standard_car" route="N_S" depart="890.0" departLane="random" departSpeed="10" />
    <vehicle id="W_S_234" type="standard_car" route="W_S" depart="890.0" departLane="random" departSpeed="10" />
    <vehicle id="W_S_235" type="standard_car" route="W_S" depart="893.0" departLane="random" departSpeed="10" />
    <vehicle id="N_S_236" type="standard_car" route="N_S" depart="893.0" departLane="random" departSpeed="10" />
    <vehicle id="E_W_237" type="standard_car" route="E_W" depart="894.0" departLane="random" departSpeed="10" />
    <vehicle id="E_W_238" type="standard_car" route="E_W" depart="898.0" departLane="random" departSpeed="10" />
    <vehicle id="S_N_239" type="standard_car" route="S_N" depart="903.0" departLane="random" departSpeed="10" />
    <vehicle id="S_N_240" type="standard_car" route="S_N" depart="904.0" departLane="random" departSpeed="10" />
    <vehicle id="W_N_241" type="standard_car" route="W_N" depart="905.0" departLane="random" departSpeed="10" />
    <vehicle id="N_S_242" type="standard_car" route="N_S" depart="907.0" departLane="random" departSpeed="10" />
    <vehicle id="S_W_243" type="standard_car" route="S_W" depart="907.0" departLane="random" departSpeed="10" />
    <vehicle id="W_N_244" type="standard_car" route="W_N" depart="908.0" departLane="random" departSpeed="10" />
    <vehicle id="E_W_245" type="standard_car" route="E_W" depart="908.0" departLane="random" departSpeed="10" />
    <vehicle id="W_N_246" type="standard_car" route="W_N" depart="909.0" departLane="random" departSpeed="10" />
    <vehicle id="S_E_247" type="standard_car" route="S_E" depart="910.0" departLane="random" departSpeed="10" />
    <vehicle id="E_W_248" type="standard_car" route="E_W" depart="910.0" departLane="random" departSpeed="10" />
    <vehicle id="W_N_249" type="standard_car" route="W_N" depart="912.0" departLane="random" departSpeed="10" />
    <vehicle id="S_E_250" type="standard_car" route="S_E" depart="912.0" departLane="random" departSpeed="10" />
    <vehicle id="N_S_251" type="standard_car" route="N_S" depart="913.0" departLane="random" departSpeed="10" />
    <vehicle id="W_E_252" type="standard_car" route="W_E" depart="914.0" departLane="random" departSpeed="10" />
    <vehicle id="E_S_253" type="standard_car" route="E_S" depart="915.0" departLane="random" departSpeed="10" />
    <vehicle id="W_E_254" type="standard_car" route="W_E" depart="920.0" departLane="random" departSpeed="10" />
    <vehicle id="N_E_255" type="standard_car" route="N_E" depart="924.0" departLane="random" departSpeed="10" />