<?xml version="1.0" encoding="UTF-8"?>

<!-- generated on 2023-02-27 20:56:48.891747 by randomTrips.py UNKNOWN
<configuration>
    <end value="500"/>
    <net-file value="clean-kinsale.net.xml"/>
    <route-file value="routes.rou.xml"/>
</configuration>
-->

<!-- generated on 2023-02-27 20:56:48 by Eclipse SUMO duarouter Version 1.14.1
<configuration xmlns:xsi="http://www.w3.org/2001/XMLSchema-instance" xsi:noNamespaceSchemaLocation="http://sumo.dlr.de/xsd/duarouterConfiguration.xsd">

    <input>
        <net-file value="clean-kinsale.net.xml"/>
        <route-files value="trips.trips.xml"/>
    </input>

    <output>
        <output-file value="routes.rou.xml"/>
        <alternatives-output value="NUL"/>
    </output>

    <time>
        <begin value="0"/>
        <end value="500"/>
    </time>

    <report>
        <no-warnings value="true"/>
        <ignore-errors value="true"/>
        <no-step-log value="true"/>
    </report>

</configuration>
-->

<routes xmlns:xsi="http://www.w3.org/2001/XMLSchema-instance" xsi:noNamespaceSchemaLocation="http://sumo.dlr.de/xsd/routes_file.xsd">
    <vehicle id="0" depart="0.00">
        <route edges="5317297 98392677#0 98392677#1 236028140#0 236028140#1 236028140#2 236028140#3 237170450#0 237170450#1 237170450#2 237170451#0 138121562"/>
    </vehicle>
    <vehicle id="1" depart="1.00">
        <route edges="236028138#0"/>
    </vehicle>
    <vehicle id="2" depart="2.00">
        <route edges="65222872#1 29323720 61940313"/>
    </vehicle>
    <vehicle id="3" depart="3.00">
        <route edges="98392672#2 236028138#0 236028138#1 236028140#0 29323718#0 29323718#1 29323720 217919300#0"/>
    </vehicle>
    <vehicle id="4" depart="4.00">
        <route edges="237170450#1 237170450#2 237170451#0 138121562"/>
    </vehicle>
    <vehicle id="6" depart="6.00">
        <route edges="-98392691#1 -98392691#0 98392668 237170451#2 98392672#0 98392672#1 98392672#2 5317298 236028137"/>
    </vehicle>
    <vehicle id="7" depart="7.00">
        <route edges="5317297 98392677#0 98392677#1 236028140#0 29323718#0 29323718#1"/>
    </vehicle>
    <vehicle id="9" depart="9.00">
        <route edges="98392669#1 98392669#2 237170451#0 138121562 98392691#0 98392691#1 -98392691#1 -98392691#0"/>
    </vehicle>
    <vehicle id="10" depart="10.00">
        <route edges="98392669#1 98392669#2 237170451#0 138121562 98392668"/>
    </vehicle>
    <vehicle id="11" depart="11.00">
        <route edges="236028140#1 236028140#2 236028140#3 237170450#0 237170450#1 237170450#2 237170451#0 237170451#1 237170451#2 98392672#0 98392672#1 98392672#2 5317298 236028137 22530570#1"/>
    </vehicle>
    <vehicle id="12" depart="12.00">
        <route edges="98392691#0 98392691#1 -98392691#1 -98392691#0 98392668 237170451#2 98392672#0 98392672#1 98392672#2 236028138#0 236028138#1 236028140#0 236028140#1 236028140#2 236028140#3"/>
    </vehicle>
    <vehicle id="13" depart="13.00">
        <route edges="138121562 98392668 237170451#2 98392672#0 98392672#1 98392672#2 236028138#0 236028138#1 236028140#0 29323718#0 29323718#1 29323720 217919300#0 217919300#1"/>
    </vehicle>
    <vehicle id="14" depart="14.00">
        <route edges="98392672#0 98392672#1 98392672#2 236028138#0 236028138#1 236028140#0 29323718#0 29323718#1 29323720"/>
    </vehicle>
    <vehicle id="15" depart="15.00">
        <route edges="98392669#1"/>
    </vehicle>
    <vehicle id="16" depart="16.00">
        <route edges="29323718#0 29323718#1 29323720 217919300#0 217919300#1 236028140#3 98392696#0"/>
    </vehicle>
    <vehicle id="17" depart="17.00">
        <route edges="236028140#3 237170450#0 237170450#1 237170450#2 237170451#0 237170451#1 237170451#2 98392672#0 98392672#1 98392672#2 236028138#0 236028138#1 236028140#0 29323718#0 29323718#1 29323718#2"/>
    </vehicle>
    <vehicle id="18" depart="18.00">
        <route edges="98392669#2 237170451#0 237170451#1 237170451#2 98392672#0 98392672#1 98392672#2 236028138#0 236028138#1 236028140#0 29323718#0 29323718#1 29323720"/>
    </vehicle>
    <vehicle id="19" depart="19.00">
        <route edges="98392672#1 98392672#2 236028138#0 236028138#1 236028140#0 29323718#0 29323718#1 29323718#2 29323718#3"/>
    </vehicle>
    <vehicle id="22" depart="22.00">
        <route edges="138121562 98392668 237170451#2 98392672#0 98392672#1 98392672#2 236028138#0"/>
    </vehicle>
    <vehicle id="23" depart="23.00">
        <route edges="217919300#0 217919300#1 236028140#3 237170450#0 237170450#1 237170450#2 237170451#0 237170451#1 237170451#2 98392672#0 98392672#1 98392672#2 236028138#0 236028138#1 236028140#0"/>
    </vehicle>
    <vehicle id="24" depart="24.00">
        <route edges="5317297 98392677#0 98392677#1 236028140#0 236028140#1 236028140#2 236028140#3 237170450#0"/>
    </vehicle>
    <vehicle id="25" depart="25.00">
        <route edges="236028140#2 236028140#3 237170450#0 237170450#1 237170450#2 237170451#0 237170451#1 237170451#2 98392672#0 98392672#1 98392672#2 5317298 236028137"/>
    </vehicle>
    <vehicle id="26" depart="26.00">
        <route edges="236028138#0 236028138#1 236028140#0 236028140#1 236028140#2 236028140#3 237170450#0 237170450#1 237170450#2 237170451#0 138121562 98392691#0 98392691#1"/>
    </vehicle>
    <vehicle id="27" depart="27.00">
        <route edges="5317297 98392677#0 98392677#1 236028140#0 29323718#0 29323718#1 29323720"/>
    </vehicle>
    <vehicle id="29" depart="29.00">
        <route edges="217919302#1 98392672#2 236028138#0 236028138#1 236028140#0 236028140#1 236028140#2 236028140#3 237170450#0"/>
    </vehicle>
    <vehicle id="31" depart="31.00">
        <route edges="29323718#0 29323718#1 29323720 61940313"/>
    </vehicle>
    <vehicle id="32" depart="32.00">
        <route edges="98392672#0"/>
    </vehicle>
    <vehicle id="34" depart="34.00">
        <route edges="236028140#0"/>
    </vehicle>
    <vehicle id="36" depart="36.00">
        <route edges="98392672#1 98392672#2 236028138#0 236028138#1 236028140#0 236028140#1 236028140#2"/>
    </vehicle>
    <vehicle id="38" depart="38.00">
        <route edges="98392677#0 98392677#1 236028140#0 236028140#1 236028140#2 236028140#3 237170450#0 237170450#1 237170450#2 237170451#0 237170451#1"/>
    </vehicle>
    <vehicle id="39" depart="39.00">
        <route edges="236028138#0 236028138#1"/>
    </vehicle>
    <vehicle id="40" depart="40.00">
        <route edges="29323718#1 29323720 217919300#0 217919300#1 236028140#3 237170450#0 237170450#1 237170450#2 237170451#0 237170451#1 237170451#2 98392672#0 98392672#1 98392672#2 236028138#0 236028138#1 236028140#0"/>
    </vehicle>
    <vehicle id="42" depart="42.00">
        <route edges="237170450#0 237170450#1 237170450#2 237170451#0 237170451#1 237170451#2 98392672#0 98392672#1 98392672#2 236028138#0"/>
    </vehicle>
    <vehicle id="44" depart="44.00">
        <route edges="138121562"/>
    </vehicle>
    <vehicle id="45" depart="45.00">
        <route edges="217919300#0 217919300#1 236028140#3 237170450#0 237170450#1 237170450#2 237170451#0 237170451#1 237170451#2 98392672#0 98392672#1 98392672#2 5317298"/>
    </vehicle>
    <vehicle id="46" depart="46.00">
        <route edges="98392669#1 98392669#2 237170451#0 237170451#1 237170451#2 98392672#0 98392672#1 98392672#2 236028138#0 236028138#1 236028140#0 236028140#1 236028140#2 236028140#3 237170450#0 237170450#1 237170450#2"/>
    </vehicle>
    <vehicle id="47" depart="47.00">
        <route edges="138121559#1 217919300#0 217919300#1 236028140#3 237170450#0 237170450#1"/>
    </vehicle>
    <vehicle id="52" depart="52.00">
        <route edges="236028138#0 236028138#1 236028140#0 236028140#1 236028140#2 236028140#3 237170450#0 237170450#1 237170450#2 237170451#0 237170451#1 237170451#2 98392672#0 98392672#1 98392672#2 5317298"/>
    </vehicle>
    <vehicle id="53" depart="53.00">
        <route edges="217919300#0 217919300#1 236028140#3 237170450#0 237170450#1 237170450#2 237170451#0"/>
    </vehicle>
    <vehicle id="54" depart="54.00">
        <route edges="237170450#2 237170451#0 237170451#1 237170451#2 98392672#0 98392672#1 98392672#2 236028138#0 236028138#1 236028140#0 236028140#1 236028140#2 236028140#3 98392696#0"/>
    </vehicle>
    <vehicle id="55" depart="55.00">
        <route edges="98392672#1 98392672#2 236028138#0 236028138#1 236028140#0"/>
    </vehicle>
    <vehicle id="57" depart="57.00">
        <route edges="98392677#0"/>
    </vehicle>
    <vehicle id="58" depart="58.00">
        <route edges="236028138#1 236028140#0 236028140#1 236028140#2 236028140#3 237170450#0 237170450#1 237170450#2 237170451#0 237170451#1 237170451#2 98392672#0 98392672#1 98392672#2 5317298"/>
    </vehicle>
    <vehicle id="59" depart="59.00">
        <route edges="29323720 217919300#0 217919300#1 236028140#3 237170450#0 237170450#1 237170450#2 237170451#0 237170451#1 237170451#2 98392672#0 98392672#1 98392672#2 5317298 236028137 22530570#1"/>
    </vehicle>
    <vehicle id="60" depart="60.00">
        <route edges="98392668 237170451#2 98392672#0 98392672#1 98392672#2 236028138#0 236028138#1 236028140#0 29323718#0 29323718#1"/>
    </vehicle>
    <vehicle id="61" depart="61.00">
        <route edges="98392669#0 98392669#1 98392669#2 237170451#0 237170451#1 237170451#2 98392672#0 98392672#1 98392672#2 236028138#0 236028138#1 236028140#0 29323718#0 29323718#1"/>
    </vehicle>
    <vehicle id="62" depart="62.00">
        <route edges="-98392691#0 98392668 237170451#2 98392672#0 98392672#1 98392672#2 236028138#0 236028138#1 236028140#0 236028140#1 236028140#2"/>
    </vehicle>
    <vehicle id="63" depart="63.00">
        <route edges="-98392691#0 98392691#0 98392691#1"/>
    </vehicle>
    <vehicle id="64" depart="64.00">
        <route edges="98392672#1 98392672#2"/>
    </vehicle>
    <vehicle id="65" depart="65.00">
        <route edges="236028140#0 236028140#1 236028140#2 236028140#3 237170450#0 237170450#1 237170450#2 237170451#0 237170451#1 237170451#2 146345708"/>
    </vehicle>
    <vehicle id="66" depart="66.00">
        <route edges="98392672#1 98392672#2 236028138#0 236028138#1 236028140#0 236028140#1 236028140#2 236028140#3 237170450#0 237170450#1 237170450#2 237170451#0 138121562 98392691#0 98392691#1"/>
    </vehicle>
    <vehicle id="67" depart="67.00">
        <route edges="138121562 98392668 237170451#2"/>
    </vehicle>
    <vehicle id="70" depart="70.00">
        <route edges="237170451#0 237170451#1 237170451#2 98392672#0 98392672#1 98392672#2 236028138#0 236028138#1 236028140#0 29323718#0 29323718#1 29323718#2"/>
    </vehicle>
    <vehicle id="72" depart="72.00">
        <route edges="237170450#1 237170450#2 237170451#0 237170451#1 237170451#2 98392672#0 98392672#1 98392672#2 5317298 236028137"/>
    </vehicle>
    <vehicle id="76" depart="76.00">
        <route edges="237170450#1 237170450#2 237170451#0 237170451#1 237170451#2 98392672#0 98392672#1 98392672#2 236028138#0 236028138#1 236028140#0 29323718#0"/>
    </vehicle>
    <vehicle id="77" depart="77.00">
        <route edges="217919300#1 236028140#3 237170450#0 237170450#1 237170450#2 237170451#0 237170451#1 237170451#2 98392672#0 98392672#1 98392672#2 236028138#0"/>
    </vehicle>
    <vehicle id="78" depart="78.00">
        <route edges="236028140#1 236028140#2 236028140#3 237170450#0 237170450#1 237170450#2 237170451#0 237170451#1 237170451#2 98392672#0 98392672#1 98392672#2 236028138#0 236028138#1 236028140#0 29323718#0 29323718#1 29323718#2 29323718#3"/>
    </vehicle>
    <vehicle id="80" depart="80.00">
        <route edges="138121562 98392668 237170451#2 98392672#0 98392672#1 98392672#2 5317298"/>
    </vehicle>
    <vehicle id="82" depart="82.00">
        <route edges="98392672#0 98392672#1 98392672#2 236028138#0 236028138#1 236028140#0 236028140#1 236028140#2 236028140#3 237170450#0 237170450#1 237170450#2 237170451#0 237170451#1 237170451#2 146345708"/>
    </vehicle>
    <vehicle id="85" depart="85.00">
        <route edges="98392677#1 236028140#0 29323718#0 29323718#1 29323718#2"/>
    </vehicle>
    <vehicle id="86" depart="86.00">
        <route edges="237170451#0 237170451#1 237170451#2 98392672#0"/>
    </vehicle>
    <vehicle id="88" depart="88.00">
        <route edges="217919300#0 217919300#1 236028140#3 237170450#0 237170450#1 237170450#2 237170451#0"/>
    </vehicle>
    <vehicle id="89" depart="89.00">
        <route edges="237170450#1 237170450#2 237170451#0 237170451#1"/>
    </vehicle>
    <vehicle id="90" depart="90.00">
        <route edges="65222872#1 29323720 61940313"/>
    </vehicle>
    <vehicle id="92" depart="92.00">
        <route edges="237170450#0 237170450#1 237170450#2 237170451#0 237170451#1 237170451#2 98392672#0 98392672#1 98392672#2 236028138#0 236028138#1 236028140#0 236028140#1 236028140#2 236028140#3"/>
    </vehicle>
    <vehicle id="93" depart="93.00">
        <route edges="98392672#1 98392672#2 236028138#0 236028138#1"/>
    </vehicle>
    <vehicle id="95" depart="95.00">
        <route edges="237170450#1 237170450#2 237170451#0 237170451#1 237170451#2 98392672#0 98392672#1 98392672#2 236028138#0 236028138#1 236028140#0"/>
    </vehicle>
    <vehicle id="98" depart="98.00">
        <route edges="29323718#0 29323718#1 29323720 217919300#0 217919300#1 236028140#3 237170450#0 237170450#1 237170450#2 237170451#0 237170451#1 237170451#2 146345708"/>
    </vehicle>
    <vehicle id="100" depart="100.00">
        <route edges="98392691#0"/>
    </vehicle>
    <vehicle id="101" depart="101.00">
        <route edges="98392672#0 98392672#1 98392672#2 5317298 236028137 22530570#1"/>
    </vehicle>
    <vehicle id="102" depart="102.00">
        <route edges="237170451#0 237170451#1 237170451#2 98392672#0 98392672#1 98392672#2 5317298 236028137"/>
    </vehicle>
    <vehicle id="103" depart="103.00">
        <route edges="237170450#0 237170450#1 237170450#2 237170451#0 237170451#1 237170451#2 146345708"/>
    </vehicle>
    <vehicle id="104" depart="104.00">
        <route edges="236028140#3 98392696#0 98392696#1"/>
    </vehicle>
    <vehicle id="105" depart="105.00">
        <route edges="236028138#0 236028138#1 236028140#0 236028140#1 236028140#2 236028140#3 237170450#0 237170450#1 237170450#2 237170451#0 237170451#1 237170451#2 98392672#0"/>
    </vehicle>
    <vehicle id="106" depart="106.00">
        <route edges="237170450#2"/>
    </vehicle>
    <vehicle id="107" depart="107.00">
        <route edges="98392691#0 98392691#1 -98392691#1 -98392691#0 98392668 237170451#2 98392672#0 98392672#1 98392672#2 236028138#0 236028138#1 236028140#0 236028140#1 236028140#2 236028140#3 98392696#0 98392696#1"/>
    </vehicle>
    <vehicle id="109" depart="109.00">
        <route edges="217919302#0 217919302#1 98392672#2 236028138#0 236028138#1 236028140#0 236028140#1"/>
    </vehicle>
    <vehicle id="110" depart="110.00">
        <route edges="98392691#0 98392691#1 -98392691#1 -98392691#0 98392668 237170451#2 98392672#0 98392672#1 98392672#2 236028138#0 236028138#1 236028140#0 29323718#0 29323718#1 29323718#2 29323718#3"/>
    </vehicle>
    <vehicle id="112" depart="112.00">
        <route edges="138121559#1 217919300#0 217919300#1 236028140#3 237170450#0 237170450#1 237170450#2 237170451#0 237170451#1 237170451#2 98392672#0 98392672#1 98392672#2 236028138#0 236028138#1 236028140#0 29323718#0 29323718#1 29323718#2 29323718#3"/>
    </vehicle>
    <vehicle id="113" depart="113.00">
        <route edges="237170451#1 237170451#2 98392672#0 98392672#1 98392672#2 236028138#0 236028138#1 236028140#0 29323718#0 98392676#0"/>
    </vehicle>
    <vehicle id="114" depart="114.00">
        <route edges="217919302#0 217919302#1 98392672#2 236028138#0 236028138#1 236028140#0 236028140#1 236028140#2 236028140#3 98392696#0"/>
    </vehicle>
    <vehicle id="118" depart="118.00">
        <route edges="98392672#2 236028138#0 236028138#1"/>
    </vehicle>
    <vehicle id="120" depart="120.00">
        <route edges="237170450#1 237170450#2 237170451#0 237170451#1 237170451#2 98392672#0 98392672#1 98392672#2 236028138#0 236028138#1 236028140#0 29323718#0 29323718#1 29323718#2 29323718#3"/>
    </vehicle>
    <vehicle id="121" depart="121.00">
        <route edges="237170451#2 98392672#0 98392672#1 98392672#2 236028138#0 236028138#1 236028140#0 236028140#1 236028140#2 236028140#3 237170450#0 237170450#1 237170450#2 237170451#0 138121562 98392691#0 98392691#1"/>
    </vehicle>
    <vehicle id="126" depart="126.00">
        <route edges="138121562 98392668 237170451#2 98392672#0 98392672#1 98392672#2 236028138#0 236028138#1 236028140#0 236028140#1 236028140#2 236028140#3 237170450#0 237170450#1 237170450#2 237170451#0 237170451#1"/>
    </vehicle>
    <vehicle id="127" depart="127.00">
        <route edges="98392696#0 98392696#1"/>
    </vehicle>
    <vehicle id="128" depart="128.00">
        <route edges="138121562 98392668 237170451#2 98392672#0 98392672#1 98392672#2 5317298 236028137"/>
    </vehicle>
    <vehicle id="129" depart="129.00">
        <route edges="236028138#0 236028138#1 236028140#0 236028140#1 236028140#2 236028140#3 237170450#0 237170450#1 237170450#2 237170451#0 138121562 98392691#0 98392691#1"/>
    </vehicle>
    <vehicle id="131" depart="131.00">
        <route edges="236028140#2 236028140#3 237170450#0 237170450#1 237170450#2 237170451#0 237170451#1 237170451#2 98392672#0 98392672#1 98392672#2 5317298 236028137 22530570#1"/>
    </vehicle>
    <vehicle id="132" depart="132.00">
        <route edges="98392669#2 237170451#0 138121562 98392668"/>
    </vehicle>
    <vehicle id="133" depart="133.00">
        <route edges="29323720 217919300#0 217919300#1 236028140#3 98392696#0 98392696#1"/>
    </vehicle>
    <vehicle id="135" depart="135.00">
        <route edges="98392669#2 237170451#0 237170451#1 237170451#2 98392672#0 98392672#1 98392672#2 236028138#0 236028138#1 236028140#0 236028140#1"/>
    </vehicle>
    <vehicle id="137" depart="137.00">
        <route edges="217919300#1"/>
    </vehicle>
    <vehicle id="138" depart="138.00">
        <route edges="217919300#0 217919300#1 236028140#3 237170450#0 237170450#1 237170450#2 237170451#0 237170451#1 237170451#2 98392672#0 98392672#1 98392672#2 236028138#0 236028138#1 236028140#0 29323718#0 29323718#1 29323718#2"/>
    </vehicle>
    <vehicle id="139" depart="139.00">
        <route edges="236028138#0 236028138#1 236028140#0 29323718#0 29323718#1 29323720"/>
    </vehicle>
    <vehicle id="141" depart="141.00">
        <route edges="5317297 98392677#0 98392677#1 236028140#0"/>
    </vehicle>
    <vehicle id="142" depart="142.00">
        <route edges="237170451#1 237170451#2 98392672#0 98392672#1 98392672#2 236028138#0 236028138#1 236028140#0 236028140#1 236028140#2 236028140#3 237170450#0 237170450#1 237170450#2 237170451#0 138121562 98392691#0"/>
    </vehicle>
    <vehicle id="143" depart="143.00">
        <route edges="98392672#0 98392672#1 98392672#2 236028138#0 236028138#1 236028140#0 29323718#0 29323718#1 29323720 217919300#0"/>
    </vehicle>
    <vehicle id="144" depart="144.00">
        <route edges="237170450#1 237170450#2 237170451#0 237170451#1 237170451#2 98392672#0 98392672#1 98392672#2 236028138#0 236028138#1 236028140#0"/>
    </vehicle>
    <vehicle id="145" depart="145.00">
        <route edges="-98392691#0 98392668 237170451#2 98392672#0"/>
    </vehicle>
    <vehicle id="146" depart="146.00">
        <route edges="5317297 98392677#0 98392677#1 236028140#0"/>
    </vehicle>
    <vehicle id="147" depart="147.00">
        <route edges="65222872#1 29323718#2"/>
    </vehicle>
    <vehicle id="148" depart="148.00">
        <route edges="237170450#1 237170450#2 237170451#0 138121562 98392691#0 98392691#1 -98392691#1 -98392691#0"/>
    </vehicle>
    <vehicle id="150" depart="150.00">
        <route edges="98392672#2 236028138#0 236028138#1 236028140#0 29323718#0 29323718#1"/>
    </vehicle>
    <vehicle id="151" depart="151.00">
        <route edges="98392669#2 237170451#0 237170451#1 237170451#2 98392672#0 98392672#1 98392672#2 236028138#0 236028138#1 236028140#0 29323718#0 29323718#1 29323718#2 29323718#3"/>
    </vehicle>
    <vehicle id="152" depart="152.00">
        <route edges="217919302#0 217919302#1"/>
    </vehicle>
    <vehicle id="155" depart="155.00">
        <route edges="98392672#2 5317298 236028137"/>
    </vehicle>
    <vehicle id="158" depart="158.00">
        <route edges="237170450#0 237170450#1 237170450#2 237170451#0 237170451#1 237170451#2 98392672#0 98392672#1 98392672#2 5317298"/>
    </vehicle>
    <vehicle id="159" depart="159.00">
        <route edges="217919302#0 217919302#1 98392672#2 236028138#0 236028138#1 236028140#0 236028140#1 236028140#2 236028140#3 237170450#0 237170450#1 237170450#2 237170451#0 138121562 98392691#0 98392691#1"/>
    </vehicle>
    <vehicle id="160" depart="160.00">
        <route edges="98392672#1 98392672#2 236028138#0 236028138#1 236028140#0 236028140#1 236028140#2 236028140#3 98392696#0 98392696#1"/>
    </vehicle>
    <vehicle id="163" depart="163.00">
        <route edges="236028140#1 236028140#2 236028140#3 237170450#0 237170450#1 237170450#2 237170451#0 138121562 98392691#0 98392691#1"/>
    </vehicle>
    <vehicle id="165" depart="165.00">
        <route edges="98392669#1 98392669#2 237170451#0 237170451#1 237170451#2 98392672#0 98392672#1 98392672#2 236028138#0 236028138#1 236028140#0"/>
    </vehicle>
    <vehicle id="166" depart="166.00">
        <route edges="98392669#0 98392669#1 98392669#2 237170451#0 237170451#1 237170451#2 98392672#0 98392672#1 98392672#2 236028138#0 236028138#1 236028140#0 29323718#0 29323718#1 29323720 217919300#0 217919300#1"/>
    </vehicle>
    <vehicle id="169" depart="169.00">
        <route edges="237170450#2 237170451#0 237170451#1 237170451#2 98392672#0 98392672#1 98392672#2 236028138#0 236028138#1 236028140#0 236028140#1"/>
    </vehicle>
    <vehicle id="170" depart="170.00">
        <route edges="98392669#1 98392669#2 237170451#0 237170451#1 237170451#2 98392672#0 98392672#1 98392672#2 236028138#0"/>
    </vehicle>
    <vehicle id="171" depart="171.00">
        <route edges="-98392691#1 -98392691#0 98392668 237170451#2 98392672#0 98392672#1 98392672#2 5317298 236028137"/>
    </vehicle>
    <vehicle id="173" depart="173.00">
        <route edges="98392691#0 98392691#1 -98392691#1 -98392691#0 98392668 237170451#2 98392672#0 98392672#1 98392672#2 236028138#0 236028138#1 236028140#0"/>
    </vehicle>
    <vehicle id="174" depart="174.00">
        <route edges="5317297 98392677#0 98392677#1 236028140#0 236028140#1 236028140#2 236028140#3 237170450#0 237170450#1"/>
    </vehicle>
    <vehicle id="176" depart="176.00">
        <route edges="98392677#1 236028140#0 29323718#0 29323718#1 29323720 217919300#0 217919300#1"/>
    </vehicle>
    <vehicle id="178" depart="178.00">
        <route edges="98392691#0 98392691#1 -98392691#1 -98392691#0 98392668 237170451#2 98392672#0 98392672#1 98392672#2 236028138#0 236028138#1 236028140#0"/>
    </vehicle>
    <vehicle id="179" depart="179.00">
        <route edges="217919300#0 217919300#1 236028140#3 237170450#0 237170450#1 237170450#2 237170451#0"/>
    </vehicle>
    <vehicle id="180" depart="180.00">
        <route edges="65222872#1 29323720 217919300#0 217919300#1 236028140#3 237170450#0 237170450#1 237170450#2 237170451#0 237170451#1 237170451#2 98392672#0 98392672#1 98392672#2 236028138#0 236028138#1 236028140#0 236028140#1 236028140#2"/>
    </vehicle>
    <vehicle id="181" depart="181.00">
        <route edges="29323720 217919300#0 217919300#1 236028140#3 237170450#0 237170450#1 237170450#2 237170451#0 237170451#1 237170451#2 98392672#0 98392672#1 98392672#2 236028138#0 236028138#1 236028140#0 29323718#0"/>
    </vehicle>
    <vehicle id="182" depart="182.00">
        <route edges="236028140#3 237170450#0 237170450#1 237170450#2 237170451#0 237170451#1 237170451#2 98392672#0 98392672#1 98392672#2 236028138#0 236028138#1 236028140#0 29323718#0 29323718#1 29323718#2 29323718#3"/>
    </vehicle>
    <vehicle id="184" depart="184.00">
        <route edges="-98392691#0 98392691#0"/>
    </vehicle>
    <vehicle id="186" depart="186.00">
        <route edges="65222872#1 29323720 61940313"/>
    </vehicle>
    <vehicle id="187" depart="187.00">
        <route edges="236028140#2 236028140#3 237170450#0 237170450#1 237170450#2 237170451#0 237170451#1 237170451#2 146345708"/>
    </vehicle>
    <vehicle id="189" depart="189.00">
        <route edges="236028140#0 29323718#0 98392676#0"/>
    </vehicle>
    <vehicle id="191" depart="191.00">
        <route edges="236028140#0 236028140#1 236028140#2 236028140#3 237170450#0 237170450#1 237170450#2"/>
    </vehicle>
    <vehicle id="192" depart="192.00">
        <route edges="237170450#0 237170450#1 237170450#2 237170451#0 237170451#1 237170451#2 98392672#0 98392672#1 98392672#2 236028138#0 236028138#1 236028140#0 236028140#1"/>
    </vehicle>
    <vehicle id="193" depart="193.00">
        <route edges="217919300#1 236028140#3 237170450#0 237170450#1 237170450#2"/>
    </vehicle>
    <vehicle id="194" depart="194.00">
        <route edges="98392677#1 236028140#0 29323718#0 29323718#1 29323720 61940313"/>
    </vehicle>
    <vehicle id="195" depart="195.00">
        <route edges="98392672#2 236028138#0 236028138#1 236028140#0 29323718#0 29323718#1 29323720"/>
    </vehicle>
    <vehicle id="196" depart="196.00">
        <route edges="236028138#1 236028140#0 29323718#0 29323718#1 29323718#2"/>
    </vehicle>
    <vehicle id="197" depart="197.00">
        <route edges="-98392691#0 98392668 237170451#2 98392672#0 98392672#1 98392672#2 236028138#0 236028138#1 236028140#0 236028140#1"/>
    </vehicle>
    <vehicle id="198" depart="198.00">
        <route edges="237170450#1 237170450#2 237170451#0 237170451#1 237170451#2 98392672#0 98392672#1 98392672#2 236028138#0 236028138#1 236028140#0 29323718#0 29323718#1 29323718#2 29323718#3"/>
    </vehicle>
    <vehicle id="200" depart="200.00">
        <route edges="237170450#2 237170451#0 237170451#1 237170451#2 98392672#0 98392672#1 98392672#2 5317298 236028137"/>
    </vehicle>
    <vehicle id="203" depart="203.00">
        <route edges="138121562 98392668 237170451#2 98392672#0 98392672#1 98392672#2 236028138#0 236028138#1 236028140#0 29323718#0"/>
    </vehicle>
    <vehicle id="204" depart="204.00">
        <route edges="5317297 98392677#0 98392677#1 236028140#0 236028140#1 236028140#2 236028140#3"/>
    </vehicle>
    <vehicle id="205" depart="205.00">
        <route edges="98392669#2"/>
    </vehicle>
    <vehicle id="209" depart="209.00">
        <route edges="98392672#0 98392672#1 98392672#2 236028138#0 236028138#1 236028140#0 29323718#0 29323718#1 29323720 217919300#0"/>
    </vehicle>
    <vehicle id="210" depart="210.00">
        <route edges="237170450#0 237170450#1 237170450#2 237170451#0 237170451#1 237170451#2 98392672#0 98392672#1 98392672#2 5317298"/>
    </vehicle>
    <vehicle id="212" depart="212.00">
        <route edges="237170451#1 237170451#2 98392672#0 98392672#1 98392672#2 236028138#0 236028138#1"/>
    </vehicle>
    <vehicle id="214" depart="214.00">
        <route edges="98392668 237170451#2 98392672#0"/>
    </vehicle>
    <vehicle id="215" depart="215.00">
        <route edges="217919300#0 217919300#1 236028140#3 237170450#0 237170450#1 237170450#2"/>
    </vehicle>
    <vehicle id="216" depart="216.00">
        <route edges="217919302#1 98392672#2 236028138#0 236028138#1 236028140#0 236028140#1 236028140#2 236028140#3 98392696#0"/>
    </vehicle>
    <vehicle id="217" depart="217.00">
        <route edges="237170451#2 146345708"/>
    </vehicle>
    <vehicle id="219" depart="219.00">
        <route edges="237170450#2 237170451#0 237170451#1 237170451#2 98392672#0 98392672#1"/>
    </vehicle>
    <vehicle id="222" depart="222.00">
        <route edges="98392672#2 236028138#0 236028138#1 236028140#0 29323718#0 29323718#1 29323720"/>
    </vehicle>
    <vehicle id="224" depart="224.00">
        <route edges="98392669#2 237170451#0 237170451#1 237170451#2 98392672#0 98392672#1 98392672#2 236028138#0 236028138#1 236028140#0 29323718#0 29323718#1 29323718#2"/>
    </vehicle>
    <vehicle id="226" depart="226.00">
        <route edges="237170451#0 237170451#1 237170451#2 98392672#0 98392672#1 98392672#2 236028138#0 236028138#1"/>
    </vehicle>
    <vehicle id="228" depart="228.00">
        <route edges="98392668 237170451#2 98392672#0 98392672#1 98392672#2 236028138#0 236028138#1 236028140#0 29323718#0"/>
    </vehicle>
    <vehicle id="229" depart="229.00">
        <route edges="29323720 217919300#0 217919300#1 236028140#3 237170450#0 237170450#1 237170450#2 237170451#0 237170451#1 237170451#2 98392672#0 98392672#1 98392672#2 236028138#0 236028138#1 236028140#0"/>
    </vehicle>
    <vehicle id="230" depart="230.00">
        <route edges="138121562 98392668 237170451#2 98392672#0 98392672#1 98392672#2 236028138#0 236028138#1 236028140#0 236028140#1"/>
    </vehicle>
    <vehicle id="231" depart="231.00">
        <route edges="236028138#0 236028138#1 236028140#0 236028140#1 236028140#2"/>
    </vehicle>
    <vehicle id="235" depart="235.00">
        <route edges="237170450#0 237170450#1 237170450#2 237170451#0 237170451#1 237170451#2 98392672#0 98392672#1 98392672#2 236028138#0 236028138#1 236028140#0 29323718#0 29323718#1"/>
    </vehicle>
    <vehicle id="236" depart="236.00">