<?xml version="1.0" encoding="UTF-8"?>

<!-- generated on 2023-04-18 23:17:40 by Eclipse SUMO netedit Version 1.16.0
<configuration xmlns:xsi="http://www.w3.org/2001/XMLSchema-instance" xsi:noNamespaceSchemaLocation="http://sumo.dlr.de/xsd/netconvertConfiguration.xsd">

    <input>
        <sumo-net-file value="C:\Users\tadhg_wmtcpnz\Desktop\SUMO-repo\optimal-traffic-control\Practical Basic Lights\kinsale\kinsale.net.xml"/>
    </input>

    <output>
        <output-file value="C:\Users\tadhg_wmtcpnz\Desktop\SUMO-repo\optimal-traffic-control\Practical Basic Lights\kinsale\kinsale.net.xml"/>
    </output>

    <processing>
        <geometry.min-radius.fix.railways value="false"/>
        <geometry.max-grade.fix value="false"/>
        <offset.disable-normalization value="true"/>
        <lefthand value="0"/>
    </processing>

    <junctions>
        <no-turnarounds value="true"/>
        <junctions.corner-detail value="5"/>
        <junctions.limit-turn-speed value="5.50"/>
        <rectangular-lane-cut value="0"/>
    </junctions>

    <pedestrian>
        <walkingareas value="0"/>
    </pedestrian>

</configuration>
-->

<net version="1.16" junctionCornerDetail="5" limitTurnSpeed="5.50" xmlns:xsi="http://www.w3.org/2001/XMLSchema-instance" xsi:noNamespaceSchemaLocation="http://sumo.dlr.de/xsd/net_file.xsd">

    <location netOffset="-535658.46,-5746882.17" convBoundary="468.45,146.71,996.84,419.42" origBoundary="-8.482017,51.871532,-8.449926,51.876354" projParameter="+proj=utm +zone=29 +ellps=WGS84 +datum=WGS84 +units=m +no_defs"/>

    <type id="highway.bridleway" priority="1" numLanes="1" speed="2.78" allow="pedestrian" oneway="1" width="2.00"/>
    <type id="highway.bus_guideway" priority="1" numLanes="1" speed="27.78" allow="bus" oneway="1"/>
    <type id="highway.cycleway" priority="1" numLanes="1" speed="5.56" allow="bicycle" oneway="0" width="1.00"/>
    <type id="highway.footway" priority="1" numLanes="1" speed="2.78" allow="pedestrian" oneway="1" width="2.00"/>
    <type id="highway.ford" priority="1" numLanes="1" speed="2.78" allow="army" oneway="0"/>
    <type id="highway.living_street" priority="2" numLanes="1" speed="2.78" disallow="tram rail_urban rail rail_electric rail_fast ship" oneway="0"/>
    <type id="highway.motorway" priority="14" numLanes="2" speed="39.44" allow="private emergency authority army vip passenger hov taxi bus coach delivery truck trailer motorcycle evehicle custom1 custom2" oneway="1"/>
    <type id="highway.motorway_link" priority="9" numLanes="1" speed="22.22" allow="private emergency authority army vip passenger hov taxi bus coach delivery truck trailer motorcycle evehicle custom1 custom2" oneway="1"/>
    <type id="highway.path" priority="1" numLanes="1" speed="5.56" allow="pedestrian bicycle" oneway="0" width="2.00"/>
    <type id="highway.pedestrian" priority="1" numLanes="1" speed="2.78" allow="pedestrian" oneway="1" width="2.00"/>
    <type id="highway.primary" priority="12" numLanes="2" speed="27.78" disallow="tram rail_urban rail rail_electric rail_fast ship" oneway="0"/>
    <type id="highway.primary_link" priority="7" numLanes="1" speed="22.22" disallow="tram rail_urban rail rail_electric rail_fast ship" oneway="0"/>
    <type id="highway.raceway" priority="15" numLanes="2" speed="83.33" allow="vip" oneway="0"/>
    <type id="highway.residential" priority="3" numLanes="1" speed="13.89" disallow="tram rail_urban rail rail_electric rail_fast ship" oneway="0"/>
    <type id="highway.secondary" priority="11" numLanes="1" speed="27.78" disallow="tram rail_urban rail rail_electric rail_fast ship" oneway="0"/>
    <type id="highway.secondary_link" priority="6" numLanes="1" speed="22.22" disallow="tram rail_urban rail rail_electric rail_fast ship" oneway="0"/>
    <type id="highway.service" priority="1" numLanes="1" speed="5.56" allow="pedestrian delivery bicycle" oneway="0"/>
    <type id="highway.stairs" priority="1" numLanes="1" speed="1.39" allow="pedestrian" oneway="1" width="2.00"/>
    <type id="highway.step" priority="1" numLanes="1" speed="1.39" allow="pedestrian" oneway="1" width="2.00"/>
    <type id="highway.steps" priority="1" numLanes="1" speed="1.39" allow="pedestrian" oneway="1" width="2.00"/>
    <type id="highway.tertiary" priority="10" numLanes="1" speed="22.22" disallow="tram rail_urban rail rail_electric rail_fast ship" oneway="0"/>
    <type id="highway.tertiary_link" priority="5" numLanes="1" speed="22.22" disallow="tram rail_urban rail rail_electric rail_fast ship" oneway="0"/>
    <type id="highway.track" priority="1" numLanes="1" speed="5.56" allow="pedestrian motorcycle moped bicycle" oneway="0"/>
    <type id="highway.trunk" priority="13" numLanes="2" speed="27.78" disallow="pedestrian bicycle tram rail_urban rail rail_electric rail_fast ship" oneway="0"/>
    <type id="highway.trunk_link" priority="8" numLanes="1" speed="22.22" disallow="pedestrian bicycle tram rail_urban rail rail_electric rail_fast ship" oneway="0"/>
    <type id="highway.unclassified" priority="4" numLanes="1" speed="13.89" disallow="tram rail_urban rail rail_electric rail_fast ship" oneway="0"/>
    <type id="highway.unsurfaced" priority="1" numLanes="1" speed="8.33" disallow="tram rail_urban rail rail_electric rail_fast ship" oneway="0"/>
    <type id="railway.highspeed" priority="21" numLanes="1" speed="69.44" allow="rail_fast" oneway="1"/>
    <type id="railway.light_rail" priority="19" numLanes="1" speed="27.78" allow="rail_urban" oneway="1"/>
    <type id="railway.preserved" priority="16" numLanes="1" speed="27.78" allow="rail" oneway="1"/>
    <type id="railway.rail" priority="20" numLanes="1" speed="44.44" allow="rail" oneway="1"/>
    <type id="railway.subway" priority="18" numLanes="1" speed="27.78" allow="rail_urban" oneway="1"/>
    <type id="railway.tram" priority="17" numLanes="1" speed="13.89" allow="tram" oneway="1"/>

    <edge id=":10381060_0" function="internal">
        <lane id=":10381060_0_0" index="0" disallow="tram rail_urban rail rail_electric rail_fast ship" speed="7.61" length="26.66" shape="769.51,301.15 763.85,309.02 762.52,311.94 765.52,309.92 772.85,302.94"/>
    </edge>
    <edge id=":10381060_1" function="internal">
        <lane id=":10381060_1_0" index="0" disallow="tram rail_urban rail rail_electric rail_fast ship" speed="13.89" length="18.98" shape="769.51,301.15 767.65,305.00 766.43,309.95 765.60,315.07 764.89,319.43"/>
    </edge>
    <edge id=":10381060_2" function="internal">
        <lane id=":10381060_2_0" index="0" disallow="tram rail_urban rail rail_electric rail_fast ship" speed="13.89" length="19.44" shape="761.75,318.81 763.31,315.55 766.29,312.66 770.37,309.42 775.20,305.11"/>
    </edge>
    <edge id=":10381060_3" function="internal">
        <lane id=":10381060_3_0" index="0" disallow="tram rail_urban rail rail_electric rail_fast ship" speed="3.65" length="1.44" shape="761.75,318.81 762.77,317.79"/>
    </edge>
    <edge id=":10381060_4" function="internal">
        <lane id=":10381060_4_0" index="0" disallow="tram rail_urban rail rail_electric rail_fast ship" speed="3.65" length="3.23" shape="762.77,317.79 763.64,317.55 764.34,318.10 764.89,319.43"/>
    </edge>
    <edge id=":1138341055_0" function="internal">
        <lane id=":1138341055_0_0" index="0" disallow="pedestrian bicycle tram rail_urban rail rail_electric rail_fast ship" speed="16.48" length="7.19" shape="885.53,282.08 885.38,279.99 885.59,278.56 886.08,277.14 886.73,275.10"/>
    </edge>
    <edge id=":1514163695_0" function="internal">
        <lane id=":1514163695_0_0" index="0" disallow="bicycle tram rail_urban rail rail_electric rail_fast ship" speed="27.78" length="10.58" shape="786.36,261.17 787.87,263.66 789.38,265.03 791.14,266.24 793.35,268.26"/>
        <lane id=":1514163695_0_1" index="1" disallow="bicycle tram rail_urban rail rail_electric rail_fast ship" speed="27.78" length="10.58" shape="783.46,262.53 785.00,265.12 786.53,266.57 788.30,267.86 790.58,269.96"/>
        <lane id=":1514163695_0_2" index="2" disallow="bicycle tram rail_urban rail rail_electric rail_fast ship" speed="27.78" length="10.58" shape="780.56,263.88 782.14,266.58 783.68,268.11 785.47,269.48 787.80,271.67"/>
        <lane id=":1514163695_0_3" index="3" disallow="bicycle tram rail_urban rail rail_electric rail_fast ship" speed="27.78" length="10.58" shape="777.66,265.24 779.27,268.04 780.82,269.66 782.63,271.10 785.02,273.38"/>
    </edge>
    <edge id=":1514163695_4" function="internal">
        <lane id=":1514163695_4_0" index="0" disallow="bicycle tram rail_urban rail rail_electric rail_fast ship" speed="13.90" length="10.13" shape="777.66,265.24 778.82,267.98 779.27,269.99 779.22,272.09 778.86,275.07"/>
    </edge>
    <edge id=":1515447425_0" function="internal">
        <lane id=":1515447425_0_0" index="0" disallow="bicycle tram rail_urban rail rail_electric rail_fast ship" speed="5.54" length="7.43" shape="733.26,150.58 732.87,152.13 733.42,153.44 734.92,154.50 737.37,155.31"/>
        <lane id=":1515447425_0_1" index="1" disallow="bicycle tram rail_urban rail rail_electric rail_fast ship" speed="6.40" length="10.32" shape="733.26,150.58 732.25,153.42 732.45,155.67 733.88,157.33 736.52,158.40"/>
        <lane id=":1515447425_0_2" index="2" disallow="bicycle tram rail_urban rail rail_electric rail_fast ship" speed="7.20" length="13.41" shape="733.26,150.58 731.62,154.72 731.48,157.91 732.83,160.17 735.68,161.48"/>
    </edge>
    <edge id=":2036623_0" function="internal">
        <lane id=":2036623_0_0" index="0" disallow="bicycle tram rail_urban rail rail_electric rail_fast ship" speed="27.78" length="13.59" shape="798.07,272.66 801.14,274.68 803.20,276.19 805.37,277.42 808.80,278.63"/>
        <lane id=":2036623_0_1" index="1" disallow="bicycle tram rail_urban rail rail_electric rail_fast ship" speed="27.78" length="13.59" shape="796.43,275.41 799.72,277.56 801.92,279.14 804.26,280.43 807.92,281.70"/>
        <lane id=":2036623_0_2" index="2" disallow="bicycle tram rail_urban rail rail_electric rail_fast ship" speed="27.78" length="13.59" shape="794.80,278.16 798.29,280.43 800.65,282.09 803.14,283.44 807.04,284.78"/>
        <lane id=":2036623_0_3" index="3" disallow="bicycle tram rail_urban rail rail_electric rail_fast ship" speed="27.78" length="13.59" shape="793.16,280.91 796.86,283.30 799.37,285.04 802.03,286.45 806.15,287.86"/>
    </edge>
    <edge id=":2036623_4" function="internal">
        <lane id=":2036623_4_0" index="0" disallow="bicycle tram rail_urban rail rail_electric rail_fast ship" speed="12.78" length="14.95" shape="793.03,287.66 796.90,285.48 799.81,284.19 802.83,283.92 807.04,284.78"/>
        <lane id=":2036623_4_1" index="1" disallow="bicycle tram rail_urban rail rail_electric rail_fast ship" speed="11.68" length="12.42" shape="794.57,290.46 797.77,288.62 800.17,287.48 802.67,287.17 806.15,287.86"/>
    </edge>
    <edge id=":241744826_0" function="internal">
        <lane id=":241744826_0_0" index="0" disallow="bicycle tram rail_urban rail rail_electric rail_fast ship" speed="27.78" length="16.48" shape="779.24,241.37 780.39,245.87 781.17,248.97 782.18,251.98 784.04,256.23"/>
        <lane id=":241744826_0_1" index="1" disallow="bicycle tram rail_urban rail rail_electric rail_fast ship" speed="27.78" length="16.48" shape="776.15,242.21 777.35,246.87 778.16,250.08 779.22,253.19 781.14,257.59"/>
        <lane id=":241744826_0_2" index="2" disallow="bicycle tram rail_urban rail rail_electric rail_fast ship" speed="27.78" length="16.48" shape="773.07,243.05 774.30,247.87 775.15,251.18 776.25,254.40 778.25,258.94"/>
        <lane id=":241744826_0_3" index="3" disallow="bicycle tram rail_urban rail rail_electric rail_fast ship" speed="27.78" length="16.48" shape="769.98,243.90 771.26,248.87 772.14,252.29 773.28,255.61 775.35,260.30"/>
    </edge>
    <edge id=":241744826_4" function="internal">
        <lane id=":241744826_4_0" index="0" disallow="pedestrian bicycle tram rail_urban rail rail_electric rail_fast ship" speed="14.22" length="20.30" shape="764.67,246.59 770.68,248.85 775.43,251.44 778.92,254.35 781.14,257.59"/>
        <lane id=":241744826_4_1" index="1" disallow="pedestrian bicycle tram rail_urban rail rail_electric rail_fast ship" speed="13.28" length="17.67" shape="763.71,249.64 769.10,251.64 773.32,253.85 776.37,256.29 778.25,258.94"/>
        <lane id=":241744826_4_2" index="2" disallow="pedestrian bicycle tram rail_urban rail rail_electric rail_fast ship" speed="12.28" length="15.04" shape="762.74,252.69 767.51,254.42 771.20,256.27 773.81,258.23 775.35,260.30"/>
    </edge>
    <edge id=":271248120_0" function="internal">
        <lane id=":271248120_0_0" index="0" disallow="bicycle tram rail_urban rail rail_electric rail_fast ship" speed="24.45" length="24.40" shape="843.00,190.90 836.36,188.23 831.51,187.21 826.46,187.24 819.25,187.78"/>
        <lane id=":271248120_0_1" index="1" disallow="bicycle tram rail_urban rail rail_electric rail_fast ship" speed="24.87" length="25.26" shape="844.31,187.99 837.44,185.19 832.42,184.05 827.21,184.02 819.74,184.54"/>
        <lane id=":271248120_0_2" index="2" disallow="bicycle tram rail_urban rail rail_electric rail_fast ship" speed="24.98" length="25.47" shape="844.31,187.99 837.49,184.67 832.67,182.41 827.65,181.28 820.23,181.30"/>
    </edge>
    <edge id=":271248120_3" function="internal">
        <lane id=":271248120_3_0" index="0" disallow="bicycle tram rail_urban rail rail_electric rail_fast ship" speed="22.23" length="23.79" shape="845.62,185.07 838.67,182.46 833.41,181.09 828.64,179.60 823.18,176.62"/>
        <lane id=":271248120_3_1" index="1" disallow="bicycle tram rail_urban rail rail_electric rail_fast ship" speed="22.23" length="23.79" shape="845.62,185.07 839.05,182.09 834.39,179.81 830.19,177.38 824.97,173.96"/>
    </edge>
    <edge id=":322604694_0" function="internal">
        <lane id=":322604694_0_0" index="0" disallow="bicycle tram rail_urban rail rail_electric rail_fast ship" speed="19.66" length="17.12" shape="792.50,197.20 789.21,200.62 787.71,203.58 786.83,206.97 785.38,211.68"/>
        <lane id=":322604694_0_1" index="1" disallow="bicycle tram rail_urban rail rail_electric rail_fast ship" speed="19.99" length="17.12" shape="790.41,194.78 786.96,198.29 785.31,201.30 784.29,204.76 782.74,209.60"/>
        <lane id=":322604694_0_2" index="2" disallow="bicycle tram rail_urban rail rail_electric rail_fast ship" speed="20.31" length="17.12" shape="788.32,192.35 784.71,195.96 782.90,199.02 781.75,202.54 780.11,207.52"/>
        <lane id=":322604694_0_3" index="3" disallow="bicycle tram rail_urban rail rail_electric rail_fast ship" speed="20.15" length="17.12" shape="788.32,192.35 784.33,195.62 781.61,197.99 779.53,200.82 777.47,205.44"/>
    </edge>
    <edge id=":322604694_4" function="internal">
        <lane id=":322604694_4_0" index="0" disallow="pedestrian bicycle tram rail_urban rail rail_electric rail_fast ship" speed="17.58" length="16.16" shape="788.32,192.35 784.70,195.48 781.98,197.42 778.91,198.63 774.27,199.56"/>
        <lane id=":322604694_4_1" index="1" disallow="pedestrian bicycle tram rail_urban rail rail_electric rail_fast ship" speed="17.22" length="15.51" shape="788.32,192.35 784.68,194.90 781.70,195.78 778.38,195.96 773.77,196.40"/>
    </edge>
    <edge id=":322604703_0" function="internal">
        <lane id=":322604703_0_0" index="0" disallow="bicycle tram rail_urban rail rail_electric rail_fast ship" speed="6.68" length="8.55" shape="740.17,146.74 738.18,146.42 736.38,146.92 734.77,148.25 733.35,150.40"/>
    </edge>
    <edge id=":3565837_0" function="internal">
        <lane id=":3565837_0_0" index="0" disallow="bicycle tram rail_urban rail rail_electric rail_fast ship" speed="27.78" length="7.21" shape="836.12,282.20 838.14,282.34 839.53,282.46 840.90,282.40 842.88,282.05"/>
        <lane id=":3565837_0_1" index="1" disallow="bicycle tram rail_urban rail rail_electric rail_fast ship" speed="27.78" length="7.21" shape="835.99,285.40 838.25,285.55 839.81,285.66 841.35,285.58 843.57,285.18"/>
    </edge>
    <edge id=":3565837_2" function="internal">
        <lane id=":3565837_2_0" index="0" disallow="pedestrian bicycle tram rail_urban rail rail_electric rail_fast ship" speed="17.59" length="4.92" shape="835.85,288.60 837.30,288.68 838.29,288.83 839.25,289.14 840.60,289.70"/>
        <lane id=":3565837_2_1" index="1" disallow="pedestrian bicycle tram rail_urban rail rail_electric rail_fast ship" speed="15.48" length="3.80" shape="835.71,291.79 836.83,291.86 837.59,291.98 838.33,292.22 839.37,292.65"/>
    </edge>
    <edge id=":3565841_0" function="internal">
        <lane id=":3565841_0_0" index="0" disallow="bicycle tram rail_urban rail rail_electric rail_fast ship" speed="27.78" length="15.18" shape="866.14,211.76 864.19,208.06 862.96,205.40 861.39,203.03 858.40,200.23"/>
        <lane id=":3565841_0_1" index="1" disallow="bicycle tram rail_urban rail rail_electric rail_fast ship" speed="27.78" length="15.18" shape="868.89,210.12 866.76,206.13 865.39,203.28 863.65,200.75 860.41,197.74"/>
        <lane id=":3565841_0_2" index="2" disallow="bicycle tram rail_urban rail rail_electric rail_fast ship" speed="27.78" length="15.18" shape="871.63,208.48 869.33,204.20 867.83,201.16 865.92,198.47 862.41,195.25"/>
    </edge>
    <edge id=":3565841_3" function="internal">
        <lane id=":3565841_3_0" index="0" disallow="pedestrian bicycle tram rail_urban rail rail_electric rail_fast ship" speed="21.09" length="15.21" shape="874.03,205.11 869.11,204.36 865.60,203.96 862.40,202.92 858.40,200.23"/>
        <lane id=":3565841_3_1" index="1" disallow="pedestrian bicycle tram rail_urban rail rail_electric rail_fast ship" speed="20.13" length="15.21" shape="874.69,201.98 870.20,201.33 866.99,201.03 864.06,200.16 860.41,197.74"/>
        <lane id=":3565841_3_2" index="2" disallow="pedestrian bicycle tram rail_urban rail rail_electric rail_fast ship" speed="19.13" length="15.21" shape="875.36,198.85 871.30,198.29 868.38,198.11 865.72,197.39 862.41,195.25"/>
    </edge>
    <edge id=":3901164245_0" function="internal">
        <lane id=":3901164245_0_0" index="0" disallow="bicycle tram rail_urban rail rail_electric rail_fast ship" speed="27.78" length="0.86" shape="779.65,242.76 779.19,241.18"/>
        <lane id=":3901164245_0_1" index="1" disallow="bicycle tram rail_urban rail rail_electric rail_fast ship" speed="27.78" length="0.86" shape="776.46,242.94 776.10,242.02"/>
        <lane id=":3901164245_0_2" index="2" disallow="bicycle tram rail_urban rail rail_electric rail_fast ship" speed="27.78" length="0.86" shape="773.26,243.12 773.01,242.86"/>
        <lane id=":3901164245_0_3" index="3" disallow="bicycle tram rail_urban rail rail_electric rail_fast ship" speed="27.78" length="0.86" shape="770.07,243.30 769.93,243.70"/>
    </edge>
    <edge id=":430669_0" function="internal">
        <lane id=":430669_0_0" index="0" disallow="bicycle tram rail_urban rail rail_electric rail_fast ship" speed="18.47" length="15.47" shape="867.96,261.23 870.39,257.69 871.41,254.88 871.81,251.80 872.39,247.42"/>
        <lane id=":430669_0_1" index="1" disallow="bicycle tram rail_urban rail rail_electric rail_fast ship" speed="19.02" length="15.47" shape="870.46,263.24 873.08,259.49 874.25,256.54 874.76,253.29 875.42,248.66"/>
        <lane id=":430669_0_2" index="2" disallow="bicycle tram rail_urban rail rail_electric rail_fast ship" speed="19.11" length="15.47" shape="870.46,263.24 873.57,259.67 875.78,257.17 877.32,254.36 878.45,249.90"/>
    </edge>
    <edge id=":430669_3" function="internal">
        <lane id=":430669_3_0" index="0" disallow="pedestrian bicycle tram rail_urban rail rail_electric rail_fast ship" speed="16.40" length="15.52" shape="870.46,263.24 873.38,259.72 875.73,257.55 878.54,256.05 882.85,254.55"/>
        <lane id=":430669_3_1" index="1" disallow="pedestrian bicycle tram rail_urban rail rail_electric rail_fast ship" speed="16.10" length="14.96" shape="870.46,263.24 873.49,260.28 876.25,259.13 879.46,258.62 883.83,257.60"/>
    </edge>
    <edge id=":874302716_0" function="internal">
        <lane id=":874302716_0_0" index="0" disallow="bicycle tram rail_urban rail rail_electric rail_fast ship" speed="16.67" length="0.87" shape="823.01,176.50 823.93,177.14"/>
        <lane id=":874302716_0_1" index="1" disallow="bicycle tram rail_urban rail rail_electric rail_fast ship" speed="16.67" length="0.87" shape="824.80,173.85 825.28,174.25"/>
    </edge>
    <edge id=":9675765167_0" function="internal">
        <lane id=":9675765167_0_0" index="0" disallow="bicycle tram rail_urban rail rail_electric rail_fast ship" speed="17.53" length="9.62" shape="799.79,193.07 797.46,193.83 795.92,194.52 794.52,195.49 792.65,197.07"/>
        <lane id=":9675765167_0_1" index="1" disallow="bicycle tram rail_urban rail rail_electric rail_fast ship" speed="18.87" length="9.62" shape="798.85,190.01 796.15,190.89 794.35,191.69 792.74,192.81 790.56,194.65"/>
        <lane id=":9675765167_0_2" index="2" disallow="bicycle tram rail_urban rail rail_electric rail_fast ship" speed="20.11" length="9.62" shape="797.91,186.96 794.83,187.95 792.79,188.86 790.95,190.14 788.47,192.22"/>
    </edge>
    <edge id=":9675765167_3" function="internal">
        <lane id=":9675765167_3_0" index="0" disallow="bicycle tram rail_urban rail rail_electric rail_fast ship" speed="8.46" length="13.76" shape="793.07,184.51 794.82,188.34 795.33,191.71 794.61,194.62 792.65,197.07"/>
        <lane id=":9675765167_3_1" index="1" disallow="bicycle tram rail_urban rail rail_electric rail_fast ship" speed="6.90" length="8.84" shape="790.56,186.55 791.74,189.08 792.13,191.27 791.74,193.13 790.56,194.65"/>
        <lane id=":9675765167_3_2" index="2" disallow="bicycle tram rail_urban rail rail_electric rail_fast ship" speed="4.86" length="3.94" shape="788.04,188.58 788.65,189.81 788.93,190.83 788.87,191.63 788.47,192.22"/>
    </edge>
    <edge id=":9675765169_0" function="internal">
        <lane id=":9675765169_0_0" index="0" disallow="pedestrian bicycle tram rail_urban rail rail_electric rail_fast ship" speed="12.23" length="15.07" shape="865.42,275.86 865.00,271.36 865.26,267.46 866.21,264.13 867.84,261.39"/>
        <lane id=":9675765169_0_1" index="1" disallow="pedestrian bicycle tram rail_urban rail rail_electric rail_fast ship" speed="11.17" length="12.50" shape="868.59,275.45 868.21,271.60 868.37,268.30 869.08,265.57 870.33,263.39"/>
    </edge>
    <edge id=":9675765169_2" function="internal">
        <lane id=":9675765169_2_0" index="0" disallow="bicycle tram rail_urban rail rail_electric rail_fast ship" speed="27.78" length="14.51" shape="858.75,272.70 867.84,261.39"/>
        <lane id=":9675765169_2_1" index="1" disallow="bicycle tram rail_urban rail rail_electric rail_fast ship" speed="27.78" length="14.51" shape="861.25,274.71 870.33,263.39"/>
    </edge>
    <edge id=":J1_0" function="internal">
        <lane id=":J1_0_0" index="0" disallow="pedestrian bicycle tram rail_urban rail rail_electric rail_fast ship" speed="16.67" length="0.29" shape="761.68,245.44 762.03,245.59"/>
        <lane id=":J1_0_1" index="1" disallow="pedestrian bicycle tram rail_urban rail rail_electric rail_fast ship" speed="16.67" length="0.29" shape="760.50,248.42 760.78,248.53"/>
        <lane id=":J1_0_2" index="2" disallow="pedestrian bicycle tram rail_urban rail rail_electric rail_fast ship" speed="16.67" length="0.29" shape="759.33,251.39 759.52,251.47"/>
    </edge>
    <edge id=":J10_0" function="internal">
        <lane id=":J10_0_0" index="0" disallow="bicycle tram rail_urban rail rail_electric rail_fast ship" speed="27.78" length="1.58" shape="779.15,233.09 779.13,233.20 779.12,233.28 779.12,233.36 779.13,233.48"/>
        <lane id=":J10_0_1" index="1" disallow="bicycle tram rail_urban rail rail_electric rail_fast ship" speed="27.78" length="1.58" shape="776.01,232.48 775.95,232.83 775.92,233.07 775.91,233.31 775.93,233.66"/>
        <lane id=":J10_0_2" index="2" disallow="bicycle tram rail_urban rail rail_electric rail_fast ship" speed="27.78" length="1.58" shape="772.87,231.88 772.76,232.46 772.71,232.85 772.71,233.26 772.74,233.84"/>
        <lane id=":J10_0_3" index="3" disallow="bicycle tram rail_urban rail rail_electric rail_fast ship" speed="27.78" length="1.58" shape="769.73,231.27 769.58,232.08 769.51,232.64 769.50,233.20 769.54,234.02"/>
    </edge>
    <edge id=":J12_0" function="internal">
        <lane id=":J12_0_0" index="0" disallow="bicycle tram rail_urban rail rail_electric rail_fast ship" speed="27.78" length="0.61" shape="791.48,181.74 791.50,181.80 791.52,181.84 791.54,181.87 791.57,181.93"/>
        <lane id=":J12_0_1" index="1" disallow="bicycle tram rail_urban rail rail_electric rail_fast ship" speed="27.78" length="0.61" shape="788.53,182.99 788.60,183.15 788.65,183.27 788.71,183.38 788.80,183.54"/>
        <lane id=":J12_0_2" index="2" disallow="bicycle tram rail_urban rail rail_electric rail_fast ship" speed="27.78" length="0.61" shape="785.58,184.23 785.70,184.51 785.79,184.70 785.89,184.88 786.04,185.15"/>
    </edge>
    <edge id=":J13_0" function="internal">
        <lane id=":J13_0_0" index="0" disallow="pedestrian bicycle tram rail_urban rail rail_electric rail_fast ship" speed="22.22" length="0.47" shape="774.07,199.59 774.30,199.50"/>
        <lane id=":J13_0_1" index="1" disallow="pedestrian bicycle tram rail_urban rail rail_electric rail_fast ship" speed="22.22" length="0.47" shape="773.57,196.43 774.25,196.30"/>
    </edge>
    <edge id=":J2_0" function="internal">
        <lane id=":J2_0_0" index="0" disallow="pedestrian bicycle tram rail_urban rail rail_electric rail_fast ship" speed="16.67" length="0.47" shape="763.48,246.21 763.52,246.22 763.55,246.24 763.58,246.25 763.63,246.26"/>
        <lane id=":J2_0_1" index="1" disallow="pedestrian bicycle tram rail_urban rail rail_electric rail_fast ship" speed="16.67" length="0.47" shape="762.22,249.15 762.35,249.20 762.44,249.24 762.53,249.27 762.67,249.31"/>
        <lane id=":J2_0_2" index="2" disallow="pedestrian bicycle tram rail_urban rail rail_electric rail_fast ship" speed="16.67" length="0.47" shape="760.96,252.09 761.18,252.18 761.33,252.24 761.48,252.29 761.70,252.36"/>
    </edge>
    <edge id=":J3_0" function="internal">
        <lane id=":J3_0_0" index="0" disallow="bicycle tram rail_urban rail rail_electric rail_fast ship" speed="27.78" length="1.13" shape="857.25,274.42 857.39,274.34 857.48,274.27 857.56,274.19 857.67,274.06"/>
        <lane id=":J3_0_1" index="1" disallow="bicycle tram rail_urban rail rail_electric rail_fast ship" speed="10.46" length="1.13" shape="858.90,277.16 859.33,276.90 859.60,276.69 859.85,276.45 860.16,276.06"/>
    </edge>
    <edge id=":J4_0" function="internal">
        <lane id=":J4_0_0" index="0" disallow="pedestrian bicycle tram rail_urban rail rail_electric rail_fast ship" speed="19.33" length="1.43" shape="867.26,285.28 866.95,284.64 866.78,284.19 866.66,283.72 866.55,283.02"/>
        <lane id=":J4_0_1" index="1" disallow="pedestrian bicycle tram rail_urban rail rail_electric rail_fast ship" speed="15.03" length="1.43" shape="870.14,283.88 869.95,283.49 869.85,283.22 869.78,282.94 869.71,282.52"/>
        <lane id=":J4_0_2" index="2" disallow="pedestrian bicycle tram rail_urban rail rail_electric rail_fast ship" speed="27.78" length="1.43" shape="873.01,282.47 872.95,282.35 872.91,282.25 872.89,282.16 872.87,282.02"/>
    </edge>
    <edge id=":J6_0" function="internal">
        <lane id=":J6_0_0" index="0" disallow="pedestrian bicycle tram rail_urban rail rail_electric rail_fast ship" speed="16.67" length="0.43" shape="879.94,206.32 879.73,206.30 879.58,206.28 879.44,206.25 879.23,206.21"/>
        <lane id=":J6_0_1" index="1" disallow="pedestrian bicycle tram rail_urban rail rail_electric rail_fast ship" speed="16.67" length="0.43" shape="880.32,203.15 880.19,203.13 880.10,203.12 880.01,203.10 879.89,203.08"/>
        <lane id=":J6_0_2" index="2" disallow="pedestrian bicycle tram rail_urban rail rail_electric rail_fast ship" speed="16.67" length="0.43" shape="880.69,199.97 880.65,199.96 880.62,199.96 880.59,199.95 880.55,199.94"/>
    </edge>
    <edge id=":J7_0" function="internal">
        <lane id=":J7_0_0" index="0" disallow="bicycle tram rail_urban rail rail_electric rail_fast ship" speed="27.78" length="0.46" shape="866.84,212.90 866.52,212.39"/>
        <lane id=":J7_0_1" index="1" disallow="bicycle tram rail_urban rail rail_electric rail_fast ship" speed="27.78" length="0.46" shape="869.51,211.13 869.26,210.74"/>
        <lane id=":J7_0_2" index="2" disallow="bicycle tram rail_urban rail rail_electric rail_fast ship" speed="27.78" length="0.46" shape="872.17,209.36 872.01,209.10"/>
    </edge>
    <edge id=":J8_0" function="internal">
        <lane id=":J8_0_0" index="0" disallow="bicycle tram rail_urban rail rail_electric rail_fast ship" speed="27.78" length="0.43" shape="808.98,190.25 808.69,190.33"/>
        <lane id=":J8_0_1" index="1" disallow="bicycle tram rail_urban rail rail_electric rail_fast ship" speed="27.78" length="0.43" shape="808.17,187.16 807.75,187.27"/>
        <lane id=":J8_0_2" index="2" disallow="bicycle tram rail_urban rail rail_electric rail_fast ship" speed="27.78" length="0.43" shape="807.36,184.06 806.81,184.22"/>
    </edge>

    <edge id="-98392691#0" from="895505205" to="10381060" priority="10" type="highway.tertiary" shape="765.85,349.00 761.64,327.59 764.28,314.31">
        <lane id="-98392691#0_0" index="0" disallow="tram rail_urban rail rail_electric rail_fast ship" speed="13.89" length="31.09" shape="764.28,349.31 760.01,327.59 761.75,318.81"/>
        <param key="ref" value="L2548"/>
    </edge>
    <edge id="138121562" from="1514163695" to="10381060" priority="10" type="highway.tertiary" spreadType="center" shape="780.63,260.26 777.76,284.32 775.29,293.51 765.59,306.33 764.28,314.31">