<routes>
                <vType accel="1.0" decel="4.5" id="standard_car" length="5.0" minGap="2.5" maxSpeed="25" sigma="0.5" />

                <route id="W_N" edges="E9 E25 E26 E21"/>
                <route id="W_E" edges="E9 E25 E26 E27 E28 E22"/>
                <route id="W_S" edges="E9 E25 E26 E27 E28 E29 E23"/>
                <route id="W_3" edges="E9 E25 E26 E27 E28 E29 E30 E31 E24"/>
                <route id="N_W" edges="E10 E26 E27 E28 E22"/>
                <route id="N_E" edges="E10 E26 E27 E28 E29 E23"/>
                <route id="N_S" edges="E10 E26 E27 E28 E29 E30 E31 E24"/>
                <route id="E_W" edges="E11 E28 E29 E30 E31 E32 E25 E26 E21"/>
                <route id="E_N" edges="E11 E28 E22"/>
                <route id="E_3" edges="E11 E28 E29 E23"/>
                <route id="E_S" edges="E11 E28 E29 E30 E31 E24"/>
                <route id="S_W" edges="E8 E31 E32 E25 E26 E21"/>
                <route id="S_3" edges="E8 E31 E32 E25 E26 E27 E28 E22"/>
                <route id="S_N" edges="E8 E31 E32 E25 E26 E27 E28 E29 E23"/>
                <route id="S_E" edges="E8 E31 E24"/>
    <vehicle id="W_E_0" type="standard_car" route="W_E" depart="60.0" departLane="random" departSpeed="10" />
    <vehicle id="E_W_1" type="standard_car" route="E_W" depart="84.0" departLane="random" departSpeed="10" />
    <vehicle id="N_W_2" type="standard_car" route="N_W" depart="89.0" departLane="random" departSpeed="10" />
    <vehicle id="S_N_3" type="standard_car" route="S_N" depart="129.0" departLane="random" departSpeed="10" />
    <vehicle id="W_E_4" type="standard_car" route="W_E" depart="141.0" departLane="random" departSpeed="10" />
    <vehicle id="N_E_5" type="standard_car" route="N_E" depart="154.0" departLane="random" departSpeed="10" />
    <vehicle id="E_W_6" type="standard_car" route="E_W" depart="170.0" departLane="random" departSpeed="10" />
    <vehicle id="S_E_7" type="standard_car" route="S_E" depart="173.0" departLane="random" departSpeed="10" />
    <vehicle id="N_S_8" type="standard_car" route="N_S" depart="191.0" departLane="random" departSpeed="10" />
    <vehicle id="E_S_9" type="standard_car" route="E_S" depart="193.0" departLane="random" departSpeed="10" />
    <vehicle id="W_E_10" type="standard_car" route="W_E" depart="199.0" departLane="random" departSpeed="10" />
    <vehicle id="E_S_11" type="standard_car" route="E_S" depart="202.0" departLane="random" departSpeed="10" />
    <vehicle id="E_S_12" type="standard_car" route="E_S" depart="222.0" departLane="random" departSpeed="10" />
    <vehicle id="W_N_13" type="standard_car" route="W_N" depart="223.0" departLane="random" departSpeed="10" />
    <vehicle id="N_S_14" type="standard_car" route="N_S" depart="226.0" departLane="random" departSpeed="10" />
    <vehicle id="N_S_15" type="standard_car" route="N_S" depart="229.0" departLane="random" departSpeed="10" />
    <vehicle id="W_N_16" type="standard_car" route="W_N" depart="230.0" departLane="random" departSpeed="10" />
    <vehicle id="W_N_17" type="standard_car" route="W_N" depart="241.0" departLane="random" departSpeed="10" />
    <vehicle id="S_N_18" type="standard_car" route="S_N" depart="243.0" departLane="random" departSpeed="10" />
    <vehicle id="W_E_19" type="standard_car" route="W_E" depart="257.0" departLane="random" departSpeed="10" />
    <vehicle id="S_W_20" type="standard_car" route="S_W" depart="258.0" departLane="random" departSpeed="10" />
    <vehicle id="W_E_21" type="standard_car" route="W_E" depart="259.0" departLane="random" departSpeed="10" />
    <vehicle id="W_S_22" type="standard_car" route="W_S" depart="283.0" departLane="random" departSpeed="10" />
    <vehicle id="W_S_23" type="standard_car" route="W_S" depart="299.0" departLane="random" departSpeed="10" />
    <vehicle id="N_S_24" type="standard_car" route="N_S" depart="309.0" departLane="random" departSpeed="10" />
    <vehicle id="E_N_25" type="standard_car" route="E_N" depart="317.0" departLane="random" departSpeed="10" />
    <vehicle id="W_S_26" type="standard_car" route="W_S" depart="324.0" departLane="random" departSpeed="10" />
    <vehicle id="E_W_27" type="standard_car" route="E_W" depart="326.0" departLane="random" departSpeed="10" />
    <vehicle id="E_S_28" type="standard_car" route="E_S" depart="328.0" departLane="random" departSpeed="10" />
    <vehicle id="W_N_29" type="standard_car" route="W_N" depart="339.0" departLane="random" departSpeed="10" />
    <vehicle id="W_E_30" type="standard_car" route="W_E" depart="340.0" departLane="random" departSpeed="10" />
    <vehicle id="E_W_31" type="standard_car" route="E_W" depart="352.0" departLane="random" departSpeed="10" />
    <vehicle id="W_E_32" type="standard_car" route="W_E" depart="357.0" departLane="random" departSpeed="10" />
    <vehicle id="S_N_33" type="standard_car" route="S_N" depart="357.0" departLane="random" departSpeed="10" />
    <vehicle id="S_N_34" type="standard_car" route="S_N" depart="360.0" departLane="random" departSpeed="10" />
    <vehicle id="N_S_35" type="standard_car" route="N_S" depart="360.0" departLane="random" departSpeed="10" />
    <vehicle id="W_E_36" type="standard_car" route="W_E" depart="363.0" departLane="random" departSpeed="10" />
    <vehicle id="W_E_37" type="standard_car" route="W_E" depart="378.0" departLane="random" departSpeed="10" />
    <vehicle id="W_E_38" type="standard_car" route="W_E" depart="379.0" departLane="random" departSpeed="10" />
    <vehicle id="W_E_39" type="standard_car" route="W_E" depart="379.0" departLane="random" departSpeed="10" />
    <vehicle id="W_E_40" type="standard_car" route="W_E" depart="380.0" departLane="random" departSpeed="10" />
    <vehicle id="S_W_41" type="standard_car" route="S_W" depart="381.0" departLane="random" departSpeed="10" />
    <vehicle id="S_N_42" type="standard_car" route="S_N" depart="386.0" departLane="random" departSpeed="10" />
    <vehicle id="S_N_43" type="standard_car" route="S_N" depart="386.0" departLane="random" departSpeed="10" />
    <vehicle id="N_S_44" type="standard_car" route="N_S" depart="387.0" departLane="random" departSpeed="10" />
    <vehicle id="N_W_45" type="standard_car" route="N_W" depart="391.0" departLane="random" departSpeed="10" />
    <vehicle id="E_N_46" type="standard_car" route="E_N" depart="392.0" departLane="random" departSpeed="10" />
    <vehicle id="E_W_47" type="standard_car" route="E_W" depart="392.0" departLane="random" departSpeed="10" />
    <vehicle id="W_S_48" type="standard_car" route="W_S" depart="392.0" departLane="random" departSpeed="10" />
    <vehicle id="N_S_49" type="standard_car" route="N_S" depart="395.0" departLane="random" departSpeed="10" />
    <vehicle id="N_W_50" type="standard_car" route="N_W" depart="396.0" departLane="random" departSpeed="10" />
    <vehicle id="S_N_51" type="standard_car" route="S_N" depart="397.0" departLane="random" departSpeed="10" />
    <vehicle id="S_N_52" type="standard_car" route="S_N" depart="397.0" departLane="random" departSpeed="10" />
    <vehicle id="S_N_53" type="standard_car" route="S_N" depart="400.0" departLane="random" departSpeed="10" />
    <vehicle id="S_W_54" type="standard_car" route="S_W" depart="403.0" departLane="random" departSpeed="10" />
    <vehicle id="W_E_55" type="standard_car" route="W_E" depart="405.0" departLane="random" departSpeed="10" />
    <vehicle id="S_W_56" type="standard_car" route="S_W" depart="408.0" departLane="random" departSpeed="10" />
    <vehicle id="E_S_57" type="standard_car" route="E_S" depart="413.0" departLane="random" departSpeed="10" />
    <vehicle id="N_W_58" type="standard_car" route="N_W" depart="417.0" departLane="random" departSpeed="10" />
    <vehicle id="N_S_59" type="standard_car" route="N_S" depart="426.0" departLane="random" departSpeed="10" />
    <vehicle id="E_W_60" type="standard_car" route="E_W" depart="427.0" departLane="random" departSpeed="10" />
    <vehicle id="E_W_61" type="standard_car" route="E_W" depart="428.0" departLane="random" departSpeed="10" />
    <vehicle id="E_N_62" type="standard_car" route="E_N" depart="428.0" departLane="random" departSpeed="10" />
    <vehicle id="S_E_63" type="standard_car" route="S_E" depart="429.0" departLane="random" departSpeed="10" />
    <vehicle id="S_E_64" type="standard_car" route="S_E" depart="431.0" departLane="random" departSpeed="10" />
    <vehicle id="N_S_65" type="standard_car" route="N_S" depart="436.0" departLane="random" departSpeed="10" />
    <vehicle id="S_N_66" type="standard_car" route="S_N" depart="437.0" departLane="random" departSpeed="10" />
    <vehicle id="E_N_67" type="standard_car" route="E_N" depart="439.0" departLane="random" departSpeed="10" />
    <vehicle id="E_W_68" type="standard_car" route="E_W" depart="441.0" departLane="random" departSpeed="10" />
    <vehicle id="N_S_69" type="standard_car" route="N_S" depart="443.0" departLane="random" departSpeed="10" />
    <vehicle id="N_S_70" type="standard_car" route="N_S" depart="443.0" departLane="random" departSpeed="10" />
    <vehicle id="N_S_71" type="standard_car" route="N_S" depart="448.0" departLane="random" departSpeed="10" />
    <vehicle id="S_N_72" type="standard_car" route="S_N" depart="449.0" departLane="random" departSpeed="10" />
    <vehicle id="W_E_73" type="standard_car" route="W_E" depart="451.0" departLane="random" departSpeed="10" />
    <vehicle id="W_E_74" type="standard_car" route="W_E" depart="453.0" departLane="random" departSpeed="10" />
    <vehicle id="S_N_75" type="standard_car" route="S_N" depart="453.0" departLane="random" departSpeed="10" />
    <vehicle id="E_N_76" type="standard_car" route="E_N" depart="469.0" departLane="random" departSpeed="10" />
    <vehicle id="S_N_77" type="standard_car" route="S_N" depart="470.0" departLane="random" departSpeed="10" />
    <vehicle id="E_S_78" type="standard_car" route="E_S" depart="473.0" departLane="random" departSpeed="10" />
    <vehicle id="S_W_79" type="standard_car" route="S_W" depart="474.0" departLane="random" departSpeed="10" />
    <vehicle id="W_N_80" type="standard_car" route="W_N" depart="474.0" departLane="random" departSpeed="10" />
    <vehicle id="E_W_81" type="standard_car" route="E_W" depart="474.0" departLane="random" departSpeed="10" />
    <vehicle id="N_S_82" type="standard_car" route="N_S" depart="475.0" departLane="random" departSpeed="10" />
    <vehicle id="S_N_83" type="standard_car" route="S_N" depart="476.0" departLane="random" departSpeed="10" />
    <vehicle id="N_S_84" type="standard_car" route="N_S" depart="476.0" departLane="random" departSpeed="10" />
    <vehicle id="S_E_85" type="standard_car" route="S_E" depart="478.0" departLane="random" departSpeed="10" />
    <vehicle id="E_S_86" type="standard_car" route="E_S" depart="478.0" departLane="random" departSpeed="10" />
    <vehicle id="S_W_87" type="standard_car" route="S_W" depart="482.0" departLane="random" departSpeed="10" />
    <vehicle id="W_S_88" type="standard_car" route="W_S" depart="486.0" departLane="random" departSpeed="10" />
    <vehicle id="S_E_89" type="standard_car" route="S_E" depart="489.0" departLane="random" departSpeed="10" />
    <vehicle id="W_E_90" type="standard_car" route="W_E" depart="489.0" departLane="random" departSpeed="10" />
    <vehicle id="N_E_91" type="standard_car" route="N_E" depart="492.0" departLane="random" departSpeed="10" />
    <vehicle id="S_W_92" type="standard_car" route="S_W" depart="494.0" departLane="random" departSpeed="10" />
    <vehicle id="S_N_93" type="standard_car" route="S_N" depart="498.0" departLane="random" departSpeed="10" />
    <vehicle id="S_W_94" type="standard_car" route="S_W" depart="499.0" departLane="random" departSpeed="10" />
    <vehicle id="E_N_95" type="standard_car" route="E_N" depart="501.0" departLane="random" departSpeed="10" />
    <vehicle id="E_W_96" type="standard_car" route="E_W" depart="502.0" departLane="random" departSpeed="10" />
    <vehicle id="W_N_97" type="standard_car" route="W_N" depart="502.0" departLane="random" departSpeed="10" />
    <vehicle id="N_W_98" type="standard_car" route="N_W" depart="508.0" departLane="random" departSpeed="10" />
    <vehicle id="N_E_99" type="standard_car" route="N_E" depart="509.0" departLane="random" departSpeed="10" />
    <vehicle id="W_N_100" type="standard_car" route="W_N" depart="510.0" departLane="random" departSpeed="10" />
    <vehicle id="E_S_101" type="standard_car" route="E_S" depart="511.0" departLane="random" departSpeed="10" />
    <vehicle id="N_W_102" type="standard_car" route="N_W" depart="512.0" departLane="random" departSpeed="10" />
    <vehicle id="E_W_103" type="standard_car" route="E_W" depart="515.0" departLane="random" departSpeed="10" />
    <vehicle id="W_S_104" type="standard_car" route="W_S" depart="517.0" departLane="random" departSpeed="10" />
    <vehicle id="S_N_105" type="standard_car" route="S_N" depart="520.0" departLane="random" departSpeed="10" />
    <vehicle id="E_W_106" type="standard_car" route="E_W" depart="520.0" departLane="random" departSpeed="10" />
    <vehicle id="E_S_107" type="standard_car" route="E_S" depart="525.0" departLane="random" departSpeed="10" />
    <vehicle id="S_E_108" type="standard_car" route="S_E" depart="527.0" departLane="random" departSpeed="10" />
    <vehicle id="W_N_109" type="standard_car" route="W_N" depart="528.0" departLane="random" departSpeed="10" />
    <vehicle id="E_W_110" type="standard_car" route="E_W" depart="530.0" departLane="random" departSpeed="10" />
    <vehicle id="E_W_111" type="standard_car" route="E_W" depart="533.0" departLane="random" departSpeed="10" />
    <vehicle id="N_S_112" type="standard_car" route="N_S" depart="534.0" departLane="random" departSpeed="10" />
    <vehicle id="E_W_113" type="standard_car" route="E_W" depart="535.0" departLane="random" departSpeed="10" />
    <vehicle id="S_W_114" type="standard_car" route="S_W" depart="535.0" departLane="random" departSpeed="10" />
    <vehicle id="N_W_115" type="standard_car" route="N_W" depart="537.0" departLane="random" departSpeed="10" />
    <vehicle id="S_N_116" type="standard_car" route="S_N" depart="538.0" departLane="random" departSpeed="10" />
    <vehicle id="N_E_117" type="standard_car" route="N_E" depart="542.0" departLane="random" departSpeed="10" />
    <vehicle id="N_S_118" type="standard_car" route="N_S" depart="544.0" departLane="random" departSpeed="10" />
    <vehicle id="S_N_119" type="standard_car" route="S_N" depart="545.0" departLane="random" departSpeed="10" />
    <vehicle id="N_E_120" type="standard_car" route="N_E" depart="547.0" departLane="random" departSpeed="10" />
    <vehicle id="S_N_121" type="standard_car" route="S_N" depart="553.0" departLane="random" departSpeed="10" />
    <vehicle id="W_E_122" type="standard_car" route="W_E" depart="554.0" departLane="random" departSpeed="10" />
    <vehicle id="N_W_123" type="standard_car" route="N_W" depart="556.0" departLane="random" departSpeed="10" />
    <vehicle id="S_W_124" type="standard_car" route="S_W" depart="559.0" departLane="random" departSpeed="10" />
    <vehicle id="W_E_125" type="standard_car" route="W_E" depart="561.0" departLane="random" departSpeed="10" />
    <vehicle id="E_W_126" type="standard_car" route="E_W" depart="568.0" departLane="random" departSpeed="10" />
    <vehicle id="S_E_127" type="standard_car" route="S_E" depart="570.0" departLane="random" departSpeed="10" />
    <vehicle id="N_W_128" type="standard_car" route="N_W" depart="574.0" departLane="random" departSpeed="10" />
    <vehicle id="W_N_129" type="standard_car" route="W_N" depart="575.0" departLane="random" departSpeed="10" />
    <vehicle id="W_E_130" type="standard_car" route="W_E" depart="575.0" departLane="random" departSpeed="10" />
    <vehicle id="W_E_131" type="standard_car" route="W_E" depart="576.0" departLane="random" departSpeed="10" />
    <vehicle id="N_S_132" type="standard_car" route="N_S" depart="576.0" departLane="random" departSpeed="10" />
    <vehicle id="S_N_133" type="standard_car" route="S_N" depart="577.0" departLane="random" departSpeed="10" />
    <vehicle id="N_E_134" type="standard_car" route="N_E" depart="578.0" departLane="random" departSpeed="10" />
    <vehicle id="N_E_135" type="standard_car" route="N_E" depart="579.0" departLane="random" departSpeed="10" />
    <vehicle id="N_E_136" type="standard_car" route="N_E" depart="580.0" departLane="random" departSpeed="10" />
    <vehicle id="N_W_137" type="standard_car" route="N_W" depart="581.0" departLane="random" departSpeed="10" />
    <vehicle id="S_W_138" type="standard_car" route="S_W" depart="581.0" departLane="random" departSpeed="10" />
    <vehicle id="N_S_139" type="standard_car" route="N_S" depart="582.0" departLane="random" departSpeed="10" />
    <vehicle id="N_E_140" type="standard_car" route="N_E" depart="585.0" departLane="random" departSpeed="10" />
    <vehicle id="W_E_141" type="standard_car" route="W_E" depart="585.0" departLane="random" departSpeed="10" />
    <vehicle id="E_N_142" type="standard_car" route="E_N" depart="587.0" departLane="random" departSpeed="10" />
    <vehicle id="N_W_143" type="standard_car" route="N_W" depart="588.0" departLane="random" departSpeed="10" />
    <vehicle id="S_N_144" type="standard_car" route="S_N" depart="589.0" departLane="random" departSpeed="10" />
    <vehicle id="N_E_145" type="standard_car" route="N_E" depart="589.0" departLane="random" departSpeed="10" />
    <vehicle id="E_S_146" type="standard_car" route="E_S" depart="590.0" departLane="random" departSpeed="10" />
    <vehicle id="N_W_147" type="standard_car" route="N_W" depart="591.0" departLane="random" departSpeed="10" />
    <vehicle id="W_S_148" type="standard_car" route="W_S" depart="591.0" departLane="random" departSpeed="10" />
    <vehicle id="W_N_149" type="standard_car" route="W_N" depart="593.0" departLane="random" departSpeed="10" />
    <vehicle id="S_E_150" type="standard_car" route="S_E" depart="593.0" departLane="random" departSpeed="10" />
    <vehicle id="S_N_151" type="standard_car" route="S_N" depart="597.0" departLane="random" departSpeed="10" />
    <vehicle id="S_N_152" type="standard_car" route="S_N" depart="597.0" departLane="random" departSpeed="10" />
    <vehicle id="S_E_153" type="standard_car" route="S_E" depart="600.0" departLane="random" departSpeed="10" />
    <vehicle id="N_W_154" type="standard_car" route="N_W" depart="602.0" departLane="random" departSpeed="10" />
    <vehicle id="W_N_155" type="standard_car" route="W_N" depart="603.0" departLane="random" departSpeed="10" />
    <vehicle id="W_N_156" type="standard_car" route="W_N" depart="604.0" departLane="random" departSpeed="10" />
    <vehicle id="E_W_157" type="standard_car" route="E_W" depart="605.0" departLane="random" departSpeed="10" />
    <vehicle id="W_E_158" type="standard_car" route="W_E" depart="605.0" departLane="random" departSpeed="10" />
    <vehicle id="E_W_159" type="standard_car" route="E_W" depart="606.0" departLane="random" departSpeed="10" />
    <vehicle id="N_S_160" type="standard_car" route="N_S" depart="613.0" departLane="random" departSpeed="10" />
    <vehicle id="E_S_161" type="standard_car" route="E_S" depart="614.0" departLane="random" departSpeed="10" />
    <vehicle id="W_N_162" type="standard_car" route="W_N" depart="615.0" departLane="random" departSpeed="10" />
    <vehicle id="S_E_163" type="standard_car" route="S_E" depart="615.0" departLane="random" departSpeed="10" />
    <vehicle id="N_S_164" type="standard_car" route="N_S" depart="621.0" departLane="random" departSpeed="10" />
    <vehicle id="W_E_165" type="standard_car" route="W_E" depart="621.0" departLane="random" departSpeed="10" />
    <vehicle id="E_S_166" type="standard_car" route="E_S" depart="625.0" departLane="random" departSpeed="10" />
    <vehicle id="S_W_167" type="standard_car" route="S_W" depart="626.0" departLane="random" departSpeed="10" />
    <vehicle id="W_E_168" type="standard_car" route="W_E" depart="627.0" departLane="random" departSpeed="10" />
    <vehicle id="N_S_169" type="standard_car" route="N_S" depart="629.0" departLane="random" departSpeed="10" />
    <vehicle id="W_E_170" type="standard_car" route="W_E" depart="632.0" departLane="random" departSpeed="10" />
    <vehicle id="W_N_171" type="standard_car" route="W_N" depart="633.0" departLane="random" departSpeed="10" />
    <vehicle id="S_N_172" type="standard_car" route="S_N" depart="634.0" departLane="random" departSpeed="10" />
    <vehicle id="W_E_173" type="standard_car" route="W_E" depart="635.0" departLane="random" departSpeed="10" />
    <vehicle id="E_N_174" type="standard_car" route="E_N" depart="637.0" departLane="random" departSpeed="10" />
    <vehicle id="S_N_175" type="standard_car" route="S_N" depart="638.0" departLane="random" departSpeed="10" />
    <vehicle id="E_W_176" type="standard_car" route="E_W" depart="643.0" departLane="random" departSpeed="10" />
    <vehicle id="E_W_177" type="standard_car" route="E_W" depart="643.0" departLane="random" departSpeed="10" />
    <vehicle id="W_E_178" type="standard_car" route="W_E" depart="645.0" departLane="random" departSpeed="10" />
    <vehicle id="S_N_179" type="standard_car" route="S_N" depart="648.0" departLane="random" departSpeed="10" />
    <vehicle id="E_S_180" type="standard_car" route="E_S" depart="649.0" departLane="random" departSpeed="10" />
    <vehicle id="S_N_181" type="standard_car" route="S_N" depart="649.0" departLane="random" departSpeed="10" />
    <vehicle id="W_S_182" type="standard_car" route="W_S" depart="652.0" departLane="random" departSpeed="10" />
    <vehicle id="S_N_183" type="standard_car" route="S_N" depart="652.0" departLane="random" departSpeed="10" />
    <vehicle id="W_N_184" type="standard_car" route="W_N" depart="654.0" departLane="random" departSpeed="10" />
    <vehicle id="S_W_185" type="standard_car" route="S_W" depart="655.0" departLane="random" departSpeed="10" />
    <vehicle id="W_E_186" type="standard_car" route="W_E" depart="658.0" departLane="random" departSpeed="10" />
    <vehicle id="W_S_187" type="standard_car" route="W_S" depart="659.0" departLane="random" departSpeed="10" />
    <vehicle id="E_S_188" type="standard_car" route="E_S" depart="663.0" departLane="random" departSpeed="10" />
    <vehicle id="S_N_189" type="standard_car" route="S_N" depart="666.0" departLane="random" departSpeed="10" />
    <vehicle id="S_N_190" type="standard_car" route="S_N" depart="666.0" departLane="random" departSpeed="10" />
    <vehicle id="E_N_191" type="standard_car" route="E_N" depart="667.0" departLane="random" departSpeed="10" />
    <vehicle id="E_S_192" type="standard_car" route="E_S" depart="671.0" departLane="random" departSpeed="10" />
    <vehicle id="S_W_193" type="standard_car" route="S_W" depart="673.0" departLane="random" departSpeed="10" />
    <vehicle id="N_S_194" type="standard_car" route="N_S" depart="678.0" departLane="random" departSpeed="10" />
    <vehicle id="N_S_195" type="standard_car" route="N_S" depart="679.0" departLane="random" departSpeed="10" />
    <vehicle id="N_S_196" type="standard_car" route="N_S" depart="681.0" departLane="random" departSpeed="10" />
    <vehicle id="S_W_197" type="standard_car" route="S_W" depart="683.0" departLane="random" departSpeed="10" />
    <vehicle id="W_S_198" type="standard_car" route="W_S" depart="683.0" departLane="random" departSpeed="10" />
    <vehicle id="N_W_199" type="standard_car" route="N_W" depart="685.0" departLane="random" departSpeed="10" />
    <vehicle id="N_E_200" type="standard_car" route="N_E" depart="692.0" departLane="random" departSpeed="10" />
    <vehicle id="W_E_201" type="standard_car" route="W_E" depart="697.0" departLane="random" departSpeed="10" />
    <vehicle id="W_E_202" type="standard_car" route="W_E" depart="698.0" departLane="random" departSpeed="10" />
    <vehicle id="E_N_203" type="standard_car" route="E_N" depart="698.0" departLane="random" departSpeed="10" />
    <vehicle id="S_E_204" type="standard_car" route="S_E" depart="700.0" departLane="random" departSpeed="10" />
    <vehicle id="E_N_205" type="standard_car" route="E_N" depart="700.0" departLane="random" departSpeed="10" />
    <vehicle id="N_S_206" type="standard_car" route="N_S" depart="701.0" departLane="random" departSpeed="10" />
    <vehicle id="W_S_207" type="standard_car" route="W_S" depart="701.0" departLane="random" departSpeed="10" />
    <vehicle id="N_E_208" type="standard_car" route="N_E" depart="703.0" departLane="random" departSpeed="10" />
    <vehicle id="S_E_209" type="standard_car" route="S_E" depart="709.0" departLane="random" departSpeed="10" />
    <vehicle id="W_E_210" type="standard_car" route="W_E" depart="710.0" departLane="random" departSpeed="10" />
    <vehicle id="S_N_211" type="standard_car" route="S_N" depart="713.0" departLane="random" departSpeed="10" />
    <vehicle id="E_N_212" type="standard_car" route="E_N" depart="713.0" departLane="random" departSpeed="10" />
    <vehicle id="N_S_213" type="standard_car" route="N_S" depart="714.0" departLane="random" departSpeed="10" />
    <vehicle id="N_W_214" type="standard_car" route="N_W" depart="716.0" departLane="random" departSpeed="10" />
    <vehicle id="S_N_215" type="standard_car" route="S_N" depart="719.0" departLane="random" departSpeed="10" />
    <vehicle id="W_S_216" type="standard_car" route="W_S" depart="722.0" departLane="random" departSpeed="10" />
    <vehicle id="E_W_217" type="standard_car" route="E_W" depart="723.0" departLane="random" departSpeed="10" />
    <vehicle id="N_W_218" type="standard_car" route="N_W" depart="725.0" departLane="random" departSpeed="10" />
    <vehicle id="W_E_219" type="standard_car" route="W_E" depart="726.0" departLane="random" departSpeed="10" />
    <vehicle id="S_W_220" type="standard_car" route="S_W" depart="727.0" departLane="random" departSpeed="10" />
    <vehicle id="W_S_221" type="standard_car" route="W_S" depart="739.0" departLane="random" departSpeed="10" />
    <vehicle id="S_E_222" type="standard_car" route="S_E" depart="741.0" departLane="random" departSpeed="10" />
    <vehicle id="W_N_223" type="standard_car" route="W_N" depart="741.0" departLane="random" departSpeed="10" />
    <vehicle id="N_E_224" type="standard_car" route="N_E" depart="744.0" departLane="random" departSpeed="10" />
    <vehicle id="S_N_225" type="standard_car" route="S_N" depart="748.0" departLane="random" departSpeed="10" />
    <vehicle id="N_S_226" type="standard_car" route="N_S" depart="749.0" departLane="random" departSpeed="10" />
    <vehicle id="W_N_227" type="standard_car" route="W_N" depart="750.0" departLane="random" departSpeed="10" />
    <vehicle id="S_E_228" type="standard_car" route="S_E" depart="751.0" departLane="random" departSpeed="10" />
    <vehicle id="E_W_229" type="standard_car" route="E_W" depart="753.0" departLane="random" departSpeed="10" />
    <vehicle id="N_E_230" type="standard_car" route="N_E" depart="753.0" departLane="random" departSpeed="10" />
    <vehicle id="W_S_231" type="standard_car" route="W_S" depart="756.0" departLane="random" departSpeed="10" />
    <vehicle id="W_E_232" type="standard_car" route="W_E" depart="758.0" departLane="random" departSpeed="10" />
    <vehicle id="S_E_233" type="standard_car" route="S_E" depart="758.0" departLane="random" departSpeed="10" />
    <vehicle id="E_S_234" type="standard_car" route="E_S" depart="760.0" departLane="random" departSpeed="10" />
    <vehicle id="S_E_235" type="standard_car" route="S_E" depart="765.0" departLane="random" departSpeed="10" />
    <vehicle id="E_W_236" type="standard_car" route="E_W" depart="766.0" departLane="random" departSpeed="10" />
    <vehicle id="S_N_237" type="standard_car" route="S_N" depart="766.0" departLane="random" departSpeed="10" />
    <vehicle id="N_S_238" type="standard_car" route="N_S" depart="770.0" departLane="random" departSpeed="10" />
    <vehicle id="W_E_239" type="standard_car" route="W_E" depart="771.0" departLane="random" departSpeed="10" />
    <vehicle id="E_S_240" type="standard_car" route="E_S" depart="772.0" departLane="random" departSpeed="10" />
    <vehicle id="S_E_241" type="standard_car" route="S_E" depart="772.0" departLane="random" departSpeed="10" />
    <vehicle id="W_E_242" type="standard_car" route="W_E" depart="773.0" departLane="random" departSpeed="10" />
    <vehicle id="W_E_243" type="standard_car" route="W_E" depart="773.0" departLane="random" departSpeed="10" />
    <vehicle id="W_E_244" type="standard_car" route="W_E" depart="773.0" departLane="random" departSpeed="10" />
    <vehicle id="W_S_245" type="standard_car" route="W_S" depart="773.0" departLane="random" departSpeed="10" />
    <vehicle id="W_E_246" type="standard_car" route="W_E" depart="779.0" departLane="random" departSpeed="10" />
    <vehicle id="W_E_247" type="standard_car" route="W_E" depart="779.0" departLane="random" departSpeed="10" />
    <vehicle id="E_W_248" type="standard_car" route="E_W" depart="780.0" departLane="random" departSpeed="10" />
    <vehicle id="N_S_249" type="standard_car" route="N_S" depart="780.0" departLane="random" departSpeed="10" />
    <vehicle id="E_N_250" type="standard_car" route="E_N" depart="782.0" departLane="random" departSpeed="10" />
    <vehicle id="W_N_251" type="standard_car" route="W_N" depart="785.0" departLane="random" departSpeed="10" />
    <vehicle id="S_E_252" type="standard_car" route="S_E" depart="787.0" departLane="random" departSpeed="10" />
    <vehicle id="S_N_253" type="standard_car" route="S_N" depart="788.0" departLane="random" departSpeed="10" />
    <vehicle id="E_W_254" type="standard_car" route="E_W" depart="790.0" departLane="random" departSpeed="10" />
    <vehicle id="N_S_255" type="standard_car" route="N_S" depart="804.0" departLane="random" departSpeed="10" />