<routes>
                <vType accel="1.0" decel="4.5" id="standard_car" length="5.0" minGap="2.5" maxSpeed="25" sigma="0.5" />

                <route id="W_N" edges="-E0 E5 E4 E3 E10"/>
                <route id="W_E" edges="-E0 E5 E4 E20"/>
                <route id="W_S" edges="-E0 E5 E30"/>
                <route id="N_W" edges="-E1 E6 E00"/>
                <route id="N_E" edges="-E1 E6 E5 E4 E20"/>
                <route id="N_S" edges="-E1 E6 E5 E30"/>
                <route id="E_W" edges="-E2 E3 E6 E00"/>
                <route id="E_N" edges="-E2 E3 E10"/>
                <route id="E_S" edges="-E2 E3 E6 E5 E30"/>
                <route id="S_W" edges="-E3 E4 E3 E6 E00"/>
                <route id="S_N" edges="-E3 E4 E3 E10"/>
                <route id="S_E" edges="-E3 E4 E20"/>
    <vehicle id="S_N_0" type="standard_car" route="S_N" depart="46.0" departLane="random" departSpeed="10" />
    <vehicle id="N_W_1" type="standard_car" route="N_W" depart="71.0" departLane="random" departSpeed="10" />
    <vehicle id="N_E_2" type="standard_car" route="N_E" depart="72.0" departLane="random" departSpeed="10" />
    <vehicle id="W_E_3" type="standard_car" route="W_E" depart="73.0" departLane="random" departSpeed="10" />
    <vehicle id="S_W_4" type="standard_car" route="S_W" depart="77.0" departLane="random" departSpeed="10" />
    <vehicle id="W_S_5" type="standard_car" route="W_S" depart="84.0" departLane="random" departSpeed="10" />
    <vehicle id="N_S_6" type="standard_car" route="N_S" depart="86.0" departLane="random" departSpeed="10" />
    <vehicle id="N_S_7" type="standard_car" route="N_S" depart="86.0" departLane="random" departSpeed="10" />
    <vehicle id="N_S_8" type="standard_car" route="N_S" depart="91.0" departLane="random" departSpeed="10" />
    <vehicle id="E_W_9" type="standard_car" route="E_W" depart="92.0" departLane="random" departSpeed="10" />
    <vehicle id="E_W_10" type="standard_car" route="E_W" depart="93.0" departLane="random" departSpeed="10" />
    <vehicle id="N_S_11" type="standard_car" route="N_S" depart="95.0" departLane="random" departSpeed="10" />
    <vehicle id="W_E_12" type="standard_car" route="W_E" depart="95.0" departLane="random" departSpeed="10" />
    <vehicle id="E_W_13" type="standard_car" route="E_W" depart="96.0" departLane="random" departSpeed="10" />
    <vehicle id="E_W_14" type="standard_car" route="E_W" depart="105.0" departLane="random" departSpeed="10" />
    <vehicle id="N_S_15" type="standard_car" route="N_S" depart="107.0" departLane="random" departSpeed="10" />
    <vehicle id="E_W_16" type="standard_car" route="E_W" depart="120.0" departLane="random" departSpeed="10" />
    <vehicle id="N_S_17" type="standard_car" route="N_S" depart="122.0" departLane="random" departSpeed="10" />
    <vehicle id="E_N_18" type="standard_car" route="E_N" depart="123.0" departLane="random" departSpeed="10" />
    <vehicle id="S_N_19" type="standard_car" route="S_N" depart="126.0" departLane="random" departSpeed="10" />
    <vehicle id="W_E_20" type="standard_car" route="W_E" depart="133.0" departLane="random" departSpeed="10" />
    <vehicle id="W_S_21" type="standard_car" route="W_S" depart="142.0" departLane="random" departSpeed="10" />
    <vehicle id="N_S_22" type="standard_car" route="N_S" depart="145.0" departLane="random" departSpeed="10" />
    <vehicle id="W_E_23" type="standard_car" route="W_E" depart="156.0" departLane="random" departSpeed="10" />
    <vehicle id="N_S_24" type="standard_car" route="N_S" depart="158.0" departLane="random" departSpeed="10" />
    <vehicle id="N_S_25" type="standard_car" route="N_S" depart="159.0" departLane="random" departSpeed="10" />
    <vehicle id="W_S_26" type="standard_car" route="W_S" depart="161.0" departLane="random" departSpeed="10" />
    <vehicle id="W_E_27" type="standard_car" route="W_E" depart="163.0" departLane="random" departSpeed="10" />
    <vehicle id="N_S_28" type="standard_car" route="N_S" depart="163.0" departLane="random" departSpeed="10" />
    <vehicle id="S_E_29" type="standard_car" route="S_E" depart="166.0" departLane="random" departSpeed="10" />
    <vehicle id="E_W_30" type="standard_car" route="E_W" depart="170.0" departLane="random" departSpeed="10" />
    <vehicle id="S_N_31" type="standard_car" route="S_N" depart="171.0" departLane="random" departSpeed="10" />
    <vehicle id="W_E_32" type="standard_car" route="W_E" depart="172.0" departLane="random" departSpeed="10" />
    <vehicle id="N_S_33" type="standard_car" route="N_S" depart="173.0" departLane="random" departSpeed="10" />
    <vehicle id="W_E_34" type="standard_car" route="W_E" depart="176.0" departLane="random" departSpeed="10" />
    <vehicle id="S_E_35" type="standard_car" route="S_E" depart="177.0" departLane="random" departSpeed="10" />
    <vehicle id="E_W_36" type="standard_car" route="E_W" depart="178.0" departLane="random" departSpeed="10" />
    <vehicle id="S_N_37" type="standard_car" route="S_N" depart="181.0" departLane="random" departSpeed="10" />
    <vehicle id="W_E_38" type="standard_car" route="W_E" depart="181.0" departLane="random" departSpeed="10" />
    <vehicle id="W_S_39" type="standard_car" route="W_S" depart="189.0" departLane="random" departSpeed="10" />
    <vehicle id="N_S_40" type="standard_car" route="N_S" depart="192.0" departLane="random" departSpeed="10" />
    <vehicle id="W_E_41" type="standard_car" route="W_E" depart="194.0" departLane="random" departSpeed="10" />
    <vehicle id="S_E_42" type="standard_car" route="S_E" depart="197.0" departLane="random" departSpeed="10" />
    <vehicle id="W_E_43" type="standard_car" route="W_E" depart="201.0" departLane="random" departSpeed="10" />
    <vehicle id="S_N_44" type="standard_car" route="S_N" depart="204.0" departLane="random" departSpeed="10" />
    <vehicle id="E_W_45" type="standard_car" route="E_W" depart="209.0" departLane="random" departSpeed="10" />
    <vehicle id="E_S_46" type="standard_car" route="E_S" depart="212.0" departLane="random" departSpeed="10" />
    <vehicle id="N_S_47" type="standard_car" route="N_S" depart="213.0" departLane="random" departSpeed="10" />
    <vehicle id="E_W_48" type="standard_car" route="E_W" depart="214.0" departLane="random" departSpeed="10" />
    <vehicle id="E_W_49" type="standard_car" route="E_W" depart="216.0" departLane="random" departSpeed="10" />
    <vehicle id="S_N_50" type="standard_car" route="S_N" depart="217.0" departLane="random" departSpeed="10" />
    <vehicle id="E_W_51" type="standard_car" route="E_W" depart="217.0" departLane="random" departSpeed="10" />
    <vehicle id="W_E_52" type="standard_car" route="W_E" depart="219.0" departLane="random" departSpeed="10" />
    <vehicle id="S_N_53" type="standard_car" route="S_N" depart="223.0" departLane="random" departSpeed="10" />
    <vehicle id="S_N_54" type="standard_car" route="S_N" depart="228.0" departLane="random" departSpeed="10" />
    <vehicle id="N_S_55" type="standard_car" route="N_S" depart="234.0" departLane="random" departSpeed="10" />
    <vehicle id="W_E_56" type="standard_car" route="W_E" depart="236.0" departLane="random" departSpeed="10" />
    <vehicle id="S_E_57" type="standard_car" route="S_E" depart="237.0" departLane="random" departSpeed="10" />
    <vehicle id="S_N_58" type="standard_car" route="S_N" depart="237.0" departLane="random" departSpeed="10" />
    <vehicle id="N_S_59" type="standard_car" route="N_S" depart="239.0" departLane="random" departSpeed="10" />
    <vehicle id="N_S_60" type="standard_car" route="N_S" depart="242.0" departLane="random" departSpeed="10" />
    <vehicle id="S_N_61" type="standard_car" route="S_N" depart="248.0" departLane="random" departSpeed="10" />
    <vehicle id="W_E_62" type="standard_car" route="W_E" depart="248.0" departLane="random" departSpeed="10" />
    <vehicle id="E_W_63" type="standard_car" route="E_W" depart="250.0" departLane="random" departSpeed="10" />
    <vehicle id="S_N_64" type="standard_car" route="S_N" depart="250.0" departLane="random" departSpeed="10" />
    <vehicle id="W_E_65" type="standard_car" route="W_E" depart="250.0" departLane="random" departSpeed="10" />
    <vehicle id="E_N_66" type="standard_car" route="E_N" depart="251.0" departLane="random" departSpeed="10" />
    <vehicle id="E_W_67" type="standard_car" route="E_W" depart="251.0" departLane="random" departSpeed="10" />
    <vehicle id="W_E_68" type="standard_car" route="W_E" depart="251.0" departLane="random" departSpeed="10" />
    <vehicle id="W_N_69" type="standard_car" route="W_N" depart="254.0" departLane="random" departSpeed="10" />
    <vehicle id="S_N_70" type="standard_car" route="S_N" depart="256.0" departLane="random" departSpeed="10" />
    <vehicle id="W_E_71" type="standard_car" route="W_E" depart="257.0" departLane="random" departSpeed="10" />
    <vehicle id="S_N_72" type="standard_car" route="S_N" depart="262.0" departLane="random" departSpeed="10" />
    <vehicle id="E_N_73" type="standard_car" route="E_N" depart="264.0" departLane="random" departSpeed="10" />
    <vehicle id="E_W_74" type="standard_car" route="E_W" depart="266.0" departLane="random" departSpeed="10" />
    <vehicle id="W_E_75" type="standard_car" route="W_E" depart="267.0" departLane="random" departSpeed="10" />
    <vehicle id="W_E_76" type="standard_car" route="W_E" depart="268.0" departLane="random" departSpeed="10" />
    <vehicle id="N_S_77" type="standard_car" route="N_S" depart="271.0" departLane="random" departSpeed="10" />
    <vehicle id="N_S_78" type="standard_car" route="N_S" depart="277.0" departLane="random" departSpeed="10" />
    <vehicle id="N_S_79" type="standard_car" route="N_S" depart="278.0" departLane="random" departSpeed="10" />
    <vehicle id="S_N_80" type="standard_car" route="S_N" depart="279.0" departLane="random" departSpeed="10" />
    <vehicle id="E_N_81" type="standard_car" route="E_N" depart="280.0" departLane="random" departSpeed="10" />
    <vehicle id="W_N_82" type="standard_car" route="W_N" depart="281.0" departLane="random" departSpeed="10" />
    <vehicle id="E_W_83" type="standard_car" route="E_W" depart="281.0" departLane="random" departSpeed="10" />
    <vehicle id="N_W_84" type="standard_car" route="N_W" depart="283.0" departLane="random" departSpeed="10" />
    <vehicle id="N_S_85" type="standard_car" route="N_S" depart="289.0" departLane="random" departSpeed="10" />
    <vehicle id="S_N_86" type="standard_car" route="S_N" depart="289.0" departLane="random" departSpeed="10" />
    <vehicle id="E_W_87" type="standard_car" route="E_W" depart="297.0" departLane="random" departSpeed="10" />
    <vehicle id="S_N_88" type="standard_car" route="S_N" depart="298.0" departLane="random" departSpeed="10" />
    <vehicle id="S_W_89" type="standard_car" route="S_W" depart="300.0" departLane="random" departSpeed="10" />
    <vehicle id="S_W_90" type="standard_car" route="S_W" depart="300.0" departLane="random" departSpeed="10" />
    <vehicle id="S_N_91" type="standard_car" route="S_N" depart="302.0" departLane="random" departSpeed="10" />
    <vehicle id="S_N_92" type="standard_car" route="S_N" depart="302.0" departLane="random" departSpeed="10" />
    <vehicle id="S_E_93" type="standard_car" route="S_E" depart="303.0" departLane="random" departSpeed="10" />
    <vehicle id="W_N_94" type="standard_car" route="W_N" depart="303.0" departLane="random" departSpeed="10" />
    <vehicle id="S_E_95" type="standard_car" route="S_E" depart="306.0" departLane="random" departSpeed="10" />
    <vehicle id="N_S_96" type="standard_car" route="N_S" depart="312.0" departLane="random" departSpeed="10" />
    <vehicle id="E_S_97" type="standard_car" route="E_S" depart="312.0" departLane="random" departSpeed="10" />
    <vehicle id="W_E_98" type="standard_car" route="W_E" depart="315.0" departLane="random" departSpeed="10" />
    <vehicle id="S_N_99" type="standard_car" route="S_N" depart="321.0" departLane="random" departSpeed="10" />
    <vehicle id="E_W_100" type="standard_car" route="E_W" depart="323.0" departLane="random" departSpeed="10" />
    <vehicle id="W_E_101" type="standard_car" route="W_E" depart="324.0" departLane="random" departSpeed="10" />
    <vehicle id="W_E_102" type="standard_car" route="W_E" depart="324.0" departLane="random" departSpeed="10" />
    <vehicle id="S_E_103" type="standard_car" route="S_E" depart="327.0" departLane="random" departSpeed="10" />
    <vehicle id="W_E_104" type="standard_car" route="W_E" depart="328.0" departLane="random" departSpeed="10" />
    <vehicle id="S_N_105" type="standard_car" route="S_N" depart="330.0" departLane="random" departSpeed="10" />
    <vehicle id="N_E_106" type="standard_car" route="N_E" depart="333.0" departLane="random" departSpeed="10" />
    <vehicle id="E_W_107" type="standard_car" route="E_W" depart="335.0" departLane="random" departSpeed="10" />
    <vehicle id="S_N_108" type="standard_car" route="S_N" depart="336.0" departLane="random" departSpeed="10" />
    <vehicle id="W_E_109" type="standard_car" route="W_E" depart="336.0" departLane="random" departSpeed="10" />
    <vehicle id="E_W_110" type="standard_car" route="E_W" depart="339.0" departLane="random" departSpeed="10" />
    <vehicle id="E_W_111" type="standard_car" route="E_W" depart="342.0" departLane="random" departSpeed="10" />
    <vehicle id="S_N_112" type="standard_car" route="S_N" depart="343.0" departLane="random" departSpeed="10" />
    <vehicle id="S_N_113" type="standard_car" route="S_N" depart="343.0" departLane="random" departSpeed="10" />
    <vehicle id="N_S_114" type="standard_car" route="N_S" depart="343.0" departLane="random" departSpeed="10" />
    <vehicle id="S_N_115" type="standard_car" route="S_N" depart="344.0" departLane="random" departSpeed="10" />
    <vehicle id="W_S_116" type="standard_car" route="W_S" depart="347.0" departLane="random" departSpeed="10" />
    <vehicle id="S_N_117" type="standard_car" route="S_N" depart="347.0" departLane="random" departSpeed="10" />
    <vehicle id="E_W_118" type="standard_car" route="E_W" depart="347.0" departLane="random" departSpeed="10" />
    <vehicle id="S_W_119" type="standard_car" route="S_W" depart="349.0" departLane="random" departSpeed="10" />
    <vehicle id="S_N_120" type="standard_car" route="S_N" depart="350.0" departLane="random" departSpeed="10" />
    <vehicle id="N_S_121" type="standard_car" route="N_S" depart="350.0" departLane="random" departSpeed="10" />
    <vehicle id="E_W_122" type="standard_car" route="E_W" depart="353.0" departLane="random" departSpeed="10" />
    <vehicle id="E_W_123" type="standard_car" route="E_W" depart="354.0" departLane="random" departSpeed="10" />
    <vehicle id="N_S_124" type="standard_car" route="N_S" depart="354.0" departLane="random" departSpeed="10" />
    <vehicle id="S_N_125" type="standard_car" route="S_N" depart="356.0" departLane="random" departSpeed="10" />
    <vehicle id="S_N_126" type="standard_car" route="S_N" depart="357.0" departLane="random" departSpeed="10" />
    <vehicle id="N_E_127" type="standard_car" route="N_E" depart="357.0" departLane="random" departSpeed="10" />
    <vehicle id="E_W_128" type="standard_car" route="E_W" depart="359.0" departLane="random" departSpeed="10" />
    <vehicle id="E_S_129" type="standard_car" route="E_S" depart="360.0" departLane="random" departSpeed="10" />
    <vehicle id="W_E_130" type="standard_car" route="W_E" depart="360.0" departLane="random" departSpeed="10" />
    <vehicle id="W_E_131" type="standard_car" route="W_E" depart="361.0" departLane="random" departSpeed="10" />
    <vehicle id="S_N_132" type="standard_car" route="S_N" depart="361.0" departLane="random" departSpeed="10" />
    <vehicle id="E_W_133" type="standard_car" route="E_W" depart="365.0" departLane="random" departSpeed="10" />
    <vehicle id="N_S_134" type="standard_car" route="N_S" depart="365.0" departLane="random" departSpeed="10" />
    <vehicle id="W_E_135" type="standard_car" route="W_E" depart="368.0" departLane="random" departSpeed="10" />
    <vehicle id="S_N_136" type="standard_car" route="S_N" depart="369.0" departLane="random" departSpeed="10" />
    <vehicle id="S_N_137" type="standard_car" route="S_N" depart="370.0" departLane="random" departSpeed="10" />
    <vehicle id="W_E_138" type="standard_car" route="W_E" depart="370.0" departLane="random" departSpeed="10" />
    <vehicle id="S_N_139" type="standard_car" route="S_N" depart="374.0" departLane="random" departSpeed="10" />
    <vehicle id="E_W_140" type="standard_car" route="E_W" depart="374.0" departLane="random" departSpeed="10" />
    <vehicle id="E_N_141" type="standard_car" route="E_N" depart="375.0" departLane="random" departSpeed="10" />
    <vehicle id="W_E_142" type="standard_car" route="W_E" depart="376.0" departLane="random" departSpeed="10" />
    <vehicle id="N_S_143" type="standard_car" route="N_S" depart="376.0" departLane="random" departSpeed="10" />
    <vehicle id="E_W_144" type="standard_car" route="E_W" depart="377.0" departLane="random" departSpeed="10" />
    <vehicle id="S_N_145" type="standard_car" route="S_N" depart="378.0" departLane="random" departSpeed="10" />
    <vehicle id="N_W_146" type="standard_car" route="N_W" depart="380.0" departLane="random" departSpeed="10" />
    <vehicle id="W_E_147" type="standard_car" route="W_E" depart="380.0" departLane="random" departSpeed="10" />
    <vehicle id="N_S_148" type="standard_car" route="N_S" depart="383.0" departLane="random" departSpeed="10" />
    <vehicle id="W_E_149" type="standard_car" route="W_E" depart="384.0" departLane="random" departSpeed="10" />
    <vehicle id="S_E_150" type="standard_car" route="S_E" depart="385.0" departLane="random" departSpeed="10" />
    <vehicle id="E_W_151" type="standard_car" route="E_W" depart="388.0" departLane="random" departSpeed="10" />
    <vehicle id="S_W_152" type="standard_car" route="S_W" depart="389.0" departLane="random" departSpeed="10" />
    <vehicle id="W_E_153" type="standard_car" route="W_E" depart="390.0" departLane="random" departSpeed="10" />
    <vehicle id="W_E_154" type="standard_car" route="W_E" depart="390.0" departLane="random" departSpeed="10" />
    <vehicle id="W_E_155" type="standard_car" route="W_E" depart="392.0" departLane="random" departSpeed="10" />
    <vehicle id="S_N_156" type="standard_car" route="S_N" depart="392.0" departLane="random" departSpeed="10" />
    <vehicle id="S_N_157" type="standard_car" route="S_N" depart="393.0" departLane="random" departSpeed="10" />
    <vehicle id="N_S_158" type="standard_car" route="N_S" depart="395.0" departLane="random" departSpeed="10" />
    <vehicle id="S_N_159" type="standard_car" route="S_N" depart="395.0" departLane="random" departSpeed="10" />
    <vehicle id="S_N_160" type="standard_car" route="S_N" depart="396.0" departLane="random" departSpeed="10" />
    <vehicle id="W_E_161" type="standard_car" route="W_E" depart="397.0" departLane="random" departSpeed="10" />
    <vehicle id="W_E_162" type="standard_car" route="W_E" depart="399.0" departLane="random" departSpeed="10" />
    <vehicle id="N_S_163" type="standard_car" route="N_S" depart="399.0" departLane="random" departSpeed="10" />
    <vehicle id="N_E_164" type="standard_car" route="N_E" depart="402.0" departLane="random" departSpeed="10" />
    <vehicle id="E_W_165" type="standard_car" route="E_W" depart="404.0" departLane="random" departSpeed="10" />
    <vehicle id="S_N_166" type="standard_car" route="S_N" depart="408.0" departLane="random" departSpeed="10" />
    <vehicle id="N_W_167" type="standard_car" route="N_W" depart="408.0" departLane="random" departSpeed="10" />
    <vehicle id="S_E_168" type="standard_car" route="S_E" depart="410.0" departLane="random" departSpeed="10" />
    <vehicle id="S_E_169" type="standard_car" route="S_E" depart="412.0" departLane="random" departSpeed="10" />
    <vehicle id="W_S_170" type="standard_car" route="W_S" depart="413.0" departLane="random" departSpeed="10" />
    <vehicle id="W_E_171" type="standard_car" route="W_E" depart="414.0" departLane="random" departSpeed="10" />
    <vehicle id="N_S_172" type="standard_car" route="N_S" depart="419.0" departLane="random" departSpeed="10" />
    <vehicle id="S_N_173" type="standard_car" route="S_N" depart="420.0" departLane="random" departSpeed="10" />
    <vehicle id="S_N_174" type="standard_car" route="S_N" depart="424.0" departLane="random" departSpeed="10" />
    <vehicle id="W_E_175" type="standard_car" route="W_E" depart="428.0" departLane="random" departSpeed="10" />
    <vehicle id="S_E_176" type="standard_car" route="S_E" depart="434.0" departLane="random" departSpeed="10" />
    <vehicle id="S_W_177" type="standard_car" route="S_W" depart="435.0" departLane="random" departSpeed="10" />
    <vehicle id="N_S_178" type="standard_car" route="N_S" depart="436.0" departLane="random" departSpeed="10" />
    <vehicle id="W_E_179" type="standard_car" route="W_E" depart="442.0" departLane="random" departSpeed="10" />
    <vehicle id="E_W_180" type="standard_car" route="E_W" depart="442.0" departLane="random" departSpeed="10" />
    <vehicle id="W_E_181" type="standard_car" route="W_E" depart="443.0" departLane="random" departSpeed="10" />
    <vehicle id="W_E_182" type="standard_car" route="W_E" depart="445.0" departLane="random" departSpeed="10" />
    <vehicle id="E_W_183" type="standard_car" route="E_W" depart="445.0" departLane="random" departSpeed="10" />
    <vehicle id="W_E_184" type="standard_car" route="W_E" depart="446.0" departLane="random" departSpeed="10" />
    <vehicle id="N_S_185" type="standard_car" route="N_S" depart="448.0" departLane="random" departSpeed="10" />
    <vehicle id="N_W_186" type="standard_car" route="N_W" depart="451.0" departLane="random" departSpeed="10" />
    <vehicle id="S_W_187" type="standard_car" route="S_W" depart="452.0" departLane="random" departSpeed="10" />
    <vehicle id="E_S_188" type="standard_car" route="E_S" depart="452.0" departLane="random" departSpeed="10" />
    <vehicle id="S_N_189" type="standard_car" route="S_N" depart="454.0" departLane="random" departSpeed="10" />
    <vehicle id="E_W_190" type="standard_car" route="E_W" depart="456.0" departLane="random" departSpeed="10" />
    <vehicle id="S_N_191" type="standard_car" route="S_N" depart="456.0" departLane="random" departSpeed="10" />
    <vehicle id="S_N_192" type="standard_car" route="S_N" depart="456.0" departLane="random" departSpeed="10" />
    <vehicle id="W_S_193" type="standard_car" route="W_S" depart="459.0" departLane="random" departSpeed="10" />
    <vehicle id="N_S_194" type="standard_car" route="N_S" depart="460.0" departLane="random" departSpeed="10" />
    <vehicle id="S_W_195" type="standard_car" route="S_W" depart="461.0" departLane="random" departSpeed="10" />
    <vehicle id="N_E_196" type="standard_car" route="N_E" depart="463.0" departLane="random" departSpeed="10" />
    <vehicle id="W_E_197" type="standard_car" route="W_E" depart="464.0" departLane="random" departSpeed="10" />
    <vehicle id="W_E_198" type="standard_car" route="W_E" depart="464.0" departLane="random" departSpeed="10" />
    <vehicle id="W_E_199" type="standard_car" route="W_E" depart="471.0" departLane="random" departSpeed="10" />
    <vehicle id="W_E_200" type="standard_car" route="W_E" depart="473.0" departLane="random" departSpeed="10" />
    <vehicle id="S_W_201" type="standard_car" route="S_W" depart="474.0" departLane="random" departSpeed="10" />
    <vehicle id="W_E_202" type="standard_car" route="W_E" depart="475.0" departLane="random" departSpeed="10" />
    <vehicle id="E_W_203" type="standard_car" route="E_W" depart="475.0" departLane="random" departSpeed="10" />
    <vehicle id="W_S_204" type="standard_car" route="W_S" depart="476.0" departLane="random" departSpeed="10" />
    <vehicle id="S_N_205" type="standard_car" route="S_N" depart="477.0" departLane="random" departSpeed="10" />
    <vehicle id="E_N_206" type="standard_car" route="E_N" depart="478.0" departLane="random" departSpeed="10" />
    <vehicle id="W_E_207" type="standard_car" route="W_E" depart="482.0" departLane="random" departSpeed="10" />
    <vehicle id="E_W_208" type="standard_car" route="E_W" depart="482.0" departLane="random" departSpeed="10" />
    <vehicle id="E_W_209" type="standard_car" route="E_W" depart="482.0" departLane="random" departSpeed="10" />
    <vehicle id="S_N_210" type="standard_car" route="S_N" depart="484.0" departLane="random" departSpeed="10" />
    <vehicle id="S_N_211" type="standard_car" route="S_N" depart="488.0" departLane="random" departSpeed="10" />
    <vehicle id="W_E_212" type="standard_car" route="W_E" depart="488.0" departLane="random" departSpeed="10" />
    <vehicle id="W_E_213" type="standard_car" route="W_E" depart="488.0" departLane="random" departSpeed="10" />
    <vehicle id="N_S_214" type="standard_car" route="N_S" depart="490.0" departLane="random" departSpeed="10" />
    <vehicle id="E_W_215" type="standard_car" route="E_W" depart="492.0" departLane="random" departSpeed="10" />
    <vehicle id="W_E_216" type="standard_car" route="W_E" depart="495.0" departLane="random" departSpeed="10" />
    <vehicle id="S_N_217" type="standard_car" route="S_N" depart="495.0" departLane="random" departSpeed="10" />
    <vehicle id="E_N_218" type="standard_car" route="E_N" depart="495.0" departLane="random" departSpeed="10" />
    <vehicle id="S_N_219" type="standard_car" route="S_N" depart="495.0" departLane="random" departSpeed="10" />
    <vehicle id="W_E_220" type="standard_car" route="W_E" depart="496.0" departLane="random" departSpeed="10" />
    <vehicle id="E_W_221" type="standard_car" route="E_W" depart="499.0" departLane="random" departSpeed="10" />
    <vehicle id="E_W_222" type="standard_car" route="E_W" depart="499.0" departLane="random" departSpeed="10" />
    <vehicle id="S_N_223" type="standard_car" route="S_N" depart="500.0" departLane="random" departSpeed="10" />
    <vehicle id="S_W_224" type="standard_car" route="S_W" depart="501.0" departLane="random" departSpeed="10" />
    <vehicle id="S_N_225" type="standard_car" route="S_N" depart="503.0" departLane="random" departSpeed="10" />
    <vehicle id="W_E_226" type="standard_car" route="W_E" depart="504.0" departLane="random" departSpeed="10" />
    <vehicle id="W_E_227" type="standard_car" route="W_E" depart="505.0" departLane="random" departSpeed="10" />
    <vehicle id="N_S_228" type="standard_car" route="N_S" depart="506.0" departLane="random" departSpeed="10" />
    <vehicle id="S_N_229" type="standard_car" route="S_N" depart="507.0" departLane="random" departSpeed="10" />
    <vehicle id="W_S_230" type="standard_car" route="W_S" depart="513.0" departLane="random" departSpeed="10" />
    <vehicle id="N_S_231" type="standard_car" route="N_S" depart="515.0" departLane="random" departSpeed="10" />
    <vehicle id="E_W_232" type="standard_car" route="E_W" depart="517.0" departLane="random" departSpeed="10" />
    <vehicle id="W_E_233" type="standard_car" route="W_E" depart="518.0" departLane="random" departSpeed="10" />
    <vehicle id="S_N_234" type="standard_car" route="S_N" depart="518.0" departLane="random" departSpeed="10" />
    <vehicle id="N_S_235" type="standard_car" route="N_S" depart="519.0" departLane="random" departSpeed="10" />
    <vehicle id="S_W_236" type="standard_car" route="S_W" depart="520.0" departLane="random" departSpeed="10" />
    <vehicle id="S_W_237" type="standard_car" route="S_W" depart="520.0" departLane="random" departSpeed="10" />
    <vehicle id="W_E_238" type="standard_car" route="W_E" depart="520.0" departLane="random" departSpeed="10" />
    <vehicle id="S_N_239" type="standard_car" route="S_N" depart="521.0" departLane="random" departSpeed="10" />
    <vehicle id="N_E_240" type="standard_car" route="N_E" depart="521.0" departLane="random" departSpeed="10" />
    <vehicle id="S_N_241" type="standard_car" route="S_N" depart="522.0" departLane="random" departSpeed="10" />
    <vehicle id="W_E_242" type="standard_car" route="W_E" depart="522.0" departLane="random" departSpeed="10" />
    <vehicle id="S_N_243" type="standard_car" route="S_N" depart="523.0" departLane="random" departSpeed="10" />
    <vehicle id="E_W_244" type="standard_car" route="E_W" depart="524.0" departLane="random" departSpeed="10" />
    <vehicle id="E_W_245" type="standard_car" route="E_W" depart="526.0" departLane="random" departSpeed="10" />
    <vehicle id="N_S_246" type="standard_car" route="N_S" depart="528.0" departLane="random" departSpeed="10" />
    <vehicle id="W_E_247" type="standard_car" route="W_E" depart="530.0" departLane="random" departSpeed="10" />
    <vehicle id="E_W_248" type="standard_car" route="E_W" depart="538.0" departLane="random" departSpeed="10" />
    <vehicle id="N_W_249" type="standard_car" route="N_W" depart="544.0" departLane="random" departSpeed="10" />
    <vehicle id="W_E_250" type="standard_car" route="W_E" depart="546.0" departLane="random" departSpeed="10" />
    <vehicle id="N_S_251" type="standard_car" route="N_S" depart="547.0" departLane="random" departSpeed="10" />
    <vehicle id="E_S_252" type="standard_car" route="E_S" depart="547.0" departLane="random" departSpeed="10" />
    <vehicle id="S_N_253" type="standard_car" route="S_N" depart="553.0" departLane="random" departSpeed="10" />
    <vehicle id="W_E_254" type="standard_car" route="W_E" depart="556.0" departLane="random" departSpeed="10" />
    <vehicle id="N_S_255" type="standard_car" route="N_S" depart="557.0" departLane="random" departSpeed="10" />
    <vehicle id="S_W_256" type="standard_car" route="S_W" depart="560.0" departLane="random" departSpeed="10" />
    <vehicle id="N_S_257" type="standard_car" route="N_S" depart="563.0" departLane="random" departSpeed="10" />
    <vehicle id="E_W_258" type="standard_car" route="E_W" depart="564.0" departLane="random" departSpeed="10" />