<routes>
                <vType accel="1.0" decel="4.5" id="standard_car" length="5.0" minGap="2.5" maxSpeed="25" sigma="0.5" />

                <route id="W_N" edges="W2TL TL2N"/>
                <route id="W_E" edges="W2TL TL2E"/>
                <route id="W_S" edges="W2TL TL2S"/>
                <route id="N_W" edges="N2TL TL2W"/>
                <route id="N_E" edges="N2TL TL2E"/>
                <route id="N_S" edges="N2TL TL2S"/>
                <route id="E_W" edges="E2TL TL2W"/>
                <route id="E_N" edges="E2TL TL2N"/>
                <route id="E_S" edges="E2TL TL2S"/>
                <route id="S_W" edges="S2TL TL2W"/>
                <route id="S_N" edges="S2TL TL2N"/>
                <route id="S_E" edges="S2TL TL2E"/>
    <vehicle id="E_W_0" type="standard_car" route="E_W" depart="4.0" departLane="random" departSpeed="10" />
    <vehicle id="S_N_1" type="standard_car" route="S_N" depart="72.0" departLane="random" departSpeed="10" />
    <vehicle id="W_N_2" type="standard_car" route="W_N" depart="86.0" departLane="random" departSpeed="10" />
    <vehicle id="N_S_3" type="standard_car" route="N_S" depart="88.0" departLane="random" departSpeed="10" />
    <vehicle id="E_W_4" type="standard_car" route="E_W" depart="88.0" departLane="random" departSpeed="10" />
    <vehicle id="N_S_5" type="standard_car" route="N_S" depart="100.0" departLane="random" departSpeed="10" />
    <vehicle id="E_W_6" type="standard_car" route="E_W" depart="126.0" departLane="random" departSpeed="10" />
    <vehicle id="E_W_7" type="standard_car" route="E_W" depart="127.0" departLane="random" departSpeed="10" />
    <vehicle id="N_S_8" type="standard_car" route="N_S" depart="130.0" departLane="random" departSpeed="10" />
    <vehicle id="W_E_9" type="standard_car" route="W_E" depart="132.0" departLane="random" departSpeed="10" />
    <vehicle id="N_E_10" type="standard_car" route="N_E" depart="133.0" departLane="random" departSpeed="10" />
    <vehicle id="N_S_11" type="standard_car" route="N_S" depart="135.0" departLane="random" departSpeed="10" />
    <vehicle id="S_N_12" type="standard_car" route="S_N" depart="166.0" departLane="random" departSpeed="10" />
    <vehicle id="S_N_13" type="standard_car" route="S_N" depart="181.0" departLane="random" departSpeed="10" />
    <vehicle id="S_N_14" type="standard_car" route="S_N" depart="181.0" departLane="random" departSpeed="10" />
    <vehicle id="S_N_15" type="standard_car" route="S_N" depart="191.0" departLane="random" departSpeed="10" />
    <vehicle id="S_E_16" type="standard_car" route="S_E" depart="193.0" departLane="random" departSpeed="10" />
    <vehicle id="E_W_17" type="standard_car" route="E_W" depart="203.0" departLane="random" departSpeed="10" />
    <vehicle id="E_W_18" type="standard_car" route="E_W" depart="206.0" departLane="random" departSpeed="10" />
    <vehicle id="S_E_19" type="standard_car" route="S_E" depart="211.0" departLane="random" departSpeed="10" />
    <vehicle id="E_W_20" type="standard_car" route="E_W" depart="214.0" departLane="random" departSpeed="10" />
    <vehicle id="S_N_21" type="standard_car" route="S_N" depart="216.0" departLane="random" departSpeed="10" />
    <vehicle id="N_S_22" type="standard_car" route="N_S" depart="220.0" departLane="random" departSpeed="10" />
    <vehicle id="W_S_23" type="standard_car" route="W_S" depart="220.0" departLane="random" departSpeed="10" />
    <vehicle id="E_W_24" type="standard_car" route="E_W" depart="221.0" departLane="random" departSpeed="10" />
    <vehicle id="N_E_25" type="standard_car" route="N_E" depart="225.0" departLane="random" departSpeed="10" />
    <vehicle id="E_W_26" type="standard_car" route="E_W" depart="225.0" departLane="random" departSpeed="10" />
    <vehicle id="W_N_27" type="standard_car" route="W_N" depart="233.0" departLane="random" departSpeed="10" />
    <vehicle id="W_E_28" type="standard_car" route="W_E" depart="237.0" departLane="random" departSpeed="10" />
    <vehicle id="E_W_29" type="standard_car" route="E_W" depart="239.0" departLane="random" departSpeed="10" />
    <vehicle id="S_N_30" type="standard_car" route="S_N" depart="242.0" departLane="random" departSpeed="10" />
    <vehicle id="W_S_31" type="standard_car" route="W_S" depart="244.0" departLane="random" departSpeed="10" />
    <vehicle id="E_N_32" type="standard_car" route="E_N" depart="245.0" departLane="random" departSpeed="10" />
    <vehicle id="E_W_33" type="standard_car" route="E_W" depart="253.0" departLane="random" departSpeed="10" />
    <vehicle id="E_W_34" type="standard_car" route="E_W" depart="262.0" departLane="random" departSpeed="10" />
    <vehicle id="N_S_35" type="standard_car" route="N_S" depart="263.0" departLane="random" departSpeed="10" />
    <vehicle id="E_W_36" type="standard_car" route="E_W" depart="272.0" departLane="random" departSpeed="10" />
    <vehicle id="N_S_37" type="standard_car" route="N_S" depart="273.0" departLane="random" departSpeed="10" />
    <vehicle id="N_S_38" type="standard_car" route="N_S" depart="278.0" departLane="random" departSpeed="10" />
    <vehicle id="S_N_39" type="standard_car" route="S_N" depart="279.0" departLane="random" departSpeed="10" />
    <vehicle id="N_S_40" type="standard_car" route="N_S" depart="280.0" departLane="random" departSpeed="10" />
    <vehicle id="W_S_41" type="standard_car" route="W_S" depart="284.0" departLane="random" departSpeed="10" />
    <vehicle id="S_N_42" type="standard_car" route="S_N" depart="297.0" departLane="random" departSpeed="10" />
    <vehicle id="S_N_43" type="standard_car" route="S_N" depart="301.0" departLane="random" departSpeed="10" />
    <vehicle id="E_W_44" type="standard_car" route="E_W" depart="301.0" departLane="random" departSpeed="10" />
    <vehicle id="W_E_45" type="standard_car" route="W_E" depart="302.0" departLane="random" departSpeed="10" />
    <vehicle id="W_E_46" type="standard_car" route="W_E" depart="302.0" departLane="random" departSpeed="10" />
    <vehicle id="S_N_47" type="standard_car" route="S_N" depart="303.0" departLane="random" departSpeed="10" />
    <vehicle id="S_N_48" type="standard_car" route="S_N" depart="305.0" departLane="random" departSpeed="10" />
    <vehicle id="W_E_49" type="standard_car" route="W_E" depart="306.0" departLane="random" departSpeed="10" />
    <vehicle id="N_S_50" type="standard_car" route="N_S" depart="314.0" departLane="random" departSpeed="10" />
    <vehicle id="N_S_51" type="standard_car" route="N_S" depart="316.0" departLane="random" departSpeed="10" />
    <vehicle id="W_N_52" type="standard_car" route="W_N" depart="321.0" departLane="random" departSpeed="10" />
    <vehicle id="S_N_53" type="standard_car" route="S_N" depart="325.0" departLane="random" departSpeed="10" />
    <vehicle id="W_E_54" type="standard_car" route="W_E" depart="326.0" departLane="random" departSpeed="10" />
    <vehicle id="E_N_55" type="standard_car" route="E_N" depart="332.0" departLane="random" departSpeed="10" />
    <vehicle id="E_W_56" type="standard_car" route="E_W" depart="334.0" departLane="random" departSpeed="10" />
    <vehicle id="N_S_57" type="standard_car" route="N_S" depart="337.0" departLane="random" departSpeed="10" />
    <vehicle id="N_E_58" type="standard_car" route="N_E" depart="340.0" departLane="random" departSpeed="10" />
    <vehicle id="E_W_59" type="standard_car" route="E_W" depart="341.0" departLane="random" departSpeed="10" />
    <vehicle id="E_S_60" type="standard_car" route="E_S" depart="344.0" departLane="random" departSpeed="10" />
    <vehicle id="W_S_61" type="standard_car" route="W_S" depart="345.0" departLane="random" departSpeed="10" />
    <vehicle id="N_S_62" type="standard_car" route="N_S" depart="347.0" departLane="random" departSpeed="10" />
    <vehicle id="W_S_63" type="standard_car" route="W_S" depart="348.0" departLane="random" departSpeed="10" />
    <vehicle id="W_E_64" type="standard_car" route="W_E" depart="349.0" departLane="random" departSpeed="10" />
    <vehicle id="S_E_65" type="standard_car" route="S_E" depart="349.0" departLane="random" departSpeed="10" />
    <vehicle id="S_N_66" type="standard_car" route="S_N" depart="353.0" departLane="random" departSpeed="10" />
    <vehicle id="S_N_67" type="standard_car" route="S_N" depart="353.0" departLane="random" departSpeed="10" />
    <vehicle id="W_S_68" type="standard_car" route="W_S" depart="354.0" departLane="random" departSpeed="10" />
    <vehicle id="N_S_69" type="standard_car" route="N_S" depart="356.0" departLane="random" departSpeed="10" />
    <vehicle id="W_E_70" type="standard_car" route="W_E" depart="357.0" departLane="random" departSpeed="10" />
    <vehicle id="E_W_71" type="standard_car" route="E_W" depart="357.0" departLane="random" departSpeed="10" />
    <vehicle id="W_E_72" type="standard_car" route="W_E" depart="357.0" departLane="random" departSpeed="10" />
    <vehicle id="N_S_73" type="standard_car" route="N_S" depart="358.0" departLane="random" departSpeed="10" />
    <vehicle id="E_W_74" type="standard_car" route="E_W" depart="359.0" departLane="random" departSpeed="10" />
    <vehicle id="E_W_75" type="standard_car" route="E_W" depart="362.0" departLane="random" departSpeed="10" />
    <vehicle id="E_W_76" type="standard_car" route="E_W" depart="364.0" departLane="random" departSpeed="10" />
    <vehicle id="E_W_77" type="standard_car" route="E_W" depart="365.0" departLane="random" departSpeed="10" />
    <vehicle id="S_N_78" type="standard_car" route="S_N" depart="367.0" departLane="random" departSpeed="10" />
    <vehicle id="S_N_79" type="standard_car" route="S_N" depart="369.0" departLane="random" departSpeed="10" />
    <vehicle id="E_S_80" type="standard_car" route="E_S" depart="369.0" departLane="random" departSpeed="10" />
    <vehicle id="E_N_81" type="standard_car" route="E_N" depart="371.0" departLane="random" departSpeed="10" />
    <vehicle id="E_W_82" type="standard_car" route="E_W" depart="371.0" departLane="random" departSpeed="10" />
    <vehicle id="S_N_83" type="standard_car" route="S_N" depart="374.0" departLane="random" departSpeed="10" />
    <vehicle id="W_E_84" type="standard_car" route="W_E" depart="379.0" departLane="random" departSpeed="10" />
    <vehicle id="S_W_85" type="standard_car" route="S_W" depart="381.0" departLane="random" departSpeed="10" />
    <vehicle id="N_S_86" type="standard_car" route="N_S" depart="384.0" departLane="random" departSpeed="10" />
    <vehicle id="N_S_87" type="standard_car" route="N_S" depart="387.0" departLane="random" departSpeed="10" />
    <vehicle id="S_E_88" type="standard_car" route="S_E" depart="389.0" departLane="random" departSpeed="10" />
    <vehicle id="E_S_89" type="standard_car" route="E_S" depart="390.0" departLane="random" departSpeed="10" />
    <vehicle id="N_S_90" type="standard_car" route="N_S" depart="393.0" departLane="random" departSpeed="10" />
    <vehicle id="W_E_91" type="standard_car" route="W_E" depart="393.0" departLane="random" departSpeed="10" />
    <vehicle id="N_S_92" type="standard_car" route="N_S" depart="395.0" departLane="random" departSpeed="10" />
    <vehicle id="S_N_93" type="standard_car" route="S_N" depart="402.0" departLane="random" departSpeed="10" />
    <vehicle id="N_S_94" type="standard_car" route="N_S" depart="403.0" departLane="random" departSpeed="10" />
    <vehicle id="W_E_95" type="standard_car" route="W_E" depart="404.0" departLane="random" departSpeed="10" />
    <vehicle id="W_S_96" type="standard_car" route="W_S" depart="405.0" departLane="random" departSpeed="10" />
    <vehicle id="W_E_97" type="standard_car" route="W_E" depart="407.0" departLane="random" departSpeed="10" />
    <vehicle id="E_W_98" type="standard_car" route="E_W" depart="407.0" departLane="random" departSpeed="10" />
    <vehicle id="N_S_99" type="standard_car" route="N_S" depart="412.0" departLane="random" departSpeed="10" />
    <vehicle id="N_S_100" type="standard_car" route="N_S" depart="419.0" departLane="random" departSpeed="10" />
    <vehicle id="W_E_101" type="standard_car" route="W_E" depart="421.0" departLane="random" departSpeed="10" />
    <vehicle id="E_W_102" type="standard_car" route="E_W" depart="421.0" departLane="random" departSpeed="10" />
    <vehicle id="N_W_103" type="standard_car" route="N_W" depart="424.0" departLane="random" departSpeed="10" />
    <vehicle id="E_W_104" type="standard_car" route="E_W" depart="424.0" departLane="random" departSpeed="10" />
    <vehicle id="N_E_105" type="standard_car" route="N_E" depart="424.0" departLane="random" departSpeed="10" />
    <vehicle id="N_E_106" type="standard_car" route="N_E" depart="425.0" departLane="random" departSpeed="10" />
    <vehicle id="S_E_107" type="standard_car" route="S_E" depart="429.0" departLane="random" departSpeed="10" />
    <vehicle id="S_N_108" type="standard_car" route="S_N" depart="432.0" departLane="random" departSpeed="10" />
    <vehicle id="W_E_109" type="standard_car" route="W_E" depart="433.0" departLane="random" departSpeed="10" />
    <vehicle id="W_E_110" type="standard_car" route="W_E" depart="433.0" departLane="random" departSpeed="10" />
    <vehicle id="W_E_111" type="standard_car" route="W_E" depart="435.0" departLane="random" departSpeed="10" />
    <vehicle id="W_E_112" type="standard_car" route="W_E" depart="436.0" departLane="random" departSpeed="10" />
    <vehicle id="E_N_113" type="standard_car" route="E_N" depart="436.0" departLane="random" departSpeed="10" />
    <vehicle id="S_N_114" type="standard_car" route="S_N" depart="437.0" departLane="random" departSpeed="10" />
    <vehicle id="N_S_115" type="standard_car" route="N_S" depart="437.0" departLane="random" departSpeed="10" />
    <vehicle id="S_N_116" type="standard_car" route="S_N" depart="443.0" departLane="random" departSpeed="10" />
    <vehicle id="W_N_117" type="standard_car" route="W_N" depart="443.0" departLane="random" departSpeed="10" />
    <vehicle id="E_W_118" type="standard_car" route="E_W" depart="445.0" departLane="random" departSpeed="10" />
    <vehicle id="S_N_119" type="standard_car" route="S_N" depart="445.0" departLane="random" departSpeed="10" />
    <vehicle id="W_N_120" type="standard_car" route="W_N" depart="447.0" departLane="random" departSpeed="10" />
    <vehicle id="N_S_121" type="standard_car" route="N_S" depart="448.0" departLane="random" departSpeed="10" />
    <vehicle id="N_S_122" type="standard_car" route="N_S" depart="449.0" departLane="random" departSpeed="10" />
    <vehicle id="S_N_123" type="standard_car" route="S_N" depart="450.0" departLane="random" departSpeed="10" />
    <vehicle id="W_E_124" type="standard_car" route="W_E" depart="452.0" departLane="random" departSpeed="10" />
    <vehicle id="N_W_125" type="standard_car" route="N_W" depart="453.0" departLane="random" departSpeed="10" />
    <vehicle id="N_S_126" type="standard_car" route="N_S" depart="454.0" departLane="random" departSpeed="10" />
    <vehicle id="N_E_127" type="standard_car" route="N_E" depart="455.0" departLane="random" departSpeed="10" />
    <vehicle id="W_E_128" type="standard_car" route="W_E" depart="457.0" departLane="random" departSpeed="10" />
    <vehicle id="N_S_129" type="standard_car" route="N_S" depart="457.0" departLane="random" departSpeed="10" />
    <vehicle id="S_W_130" type="standard_car" route="S_W" depart="466.0" departLane="random" departSpeed="10" />
    <vehicle id="N_S_131" type="standard_car" route="N_S" depart="466.0" departLane="random" departSpeed="10" />
    <vehicle id="N_E_132" type="standard_car" route="N_E" depart="469.0" departLane="random" departSpeed="10" />
    <vehicle id="N_S_133" type="standard_car" route="N_S" depart="469.0" departLane="random" departSpeed="10" />
    <vehicle id="W_E_134" type="standard_car" route="W_E" depart="469.0" departLane="random" departSpeed="10" />
    <vehicle id="S_E_135" type="standard_car" route="S_E" depart="476.0" departLane="random" departSpeed="10" />
    <vehicle id="S_N_136" type="standard_car" route="S_N" depart="483.0" departLane="random" departSpeed="10" />
    <vehicle id="S_N_137" type="standard_car" route="S_N" depart="485.0" departLane="random" departSpeed="10" />
    <vehicle id="E_S_138" type="standard_car" route="E_S" depart="486.0" departLane="random" departSpeed="10" />
    <vehicle id="S_E_139" type="standard_car" route="S_E" depart="490.0" departLane="random" departSpeed="10" />
    <vehicle id="W_E_140" type="standard_car" route="W_E" depart="491.0" departLane="random" departSpeed="10" />
    <vehicle id="S_W_141" type="standard_car" route="S_W" depart="493.0" departLane="random" departSpeed="10" />
    <vehicle id="W_E_142" type="standard_car" route="W_E" depart="494.0" departLane="random" departSpeed="10" />
    <vehicle id="W_E_143" type="standard_car" route="W_E" depart="494.0" departLane="random" departSpeed="10" />
    <vehicle id="W_E_144" type="standard_car" route="W_E" depart="497.0" departLane="random" departSpeed="10" />
    <vehicle id="W_E_145" type="standard_car" route="W_E" depart="501.0" departLane="random" departSpeed="10" />
    <vehicle id="W_E_146" type="standard_car" route="W_E" depart="503.0" departLane="random" departSpeed="10" />
    <vehicle id="N_S_147" type="standard_car" route="N_S" depart="503.0" departLane="random" departSpeed="10" />
    <vehicle id="E_W_148" type="standard_car" route="E_W" depart="505.0" departLane="random" departSpeed="10" />
    <vehicle id="N_S_149" type="standard_car" route="N_S" depart="509.0" departLane="random" departSpeed="10" />
    <vehicle id="N_S_150" type="standard_car" route="N_S" depart="511.0" departLane="random" departSpeed="10" />
    <vehicle id="S_N_151" type="standard_car" route="S_N" depart="511.0" departLane="random" departSpeed="10" />
    <vehicle id="E_W_152" type="standard_car" route="E_W" depart="511.0" departLane="random" departSpeed="10" />
    <vehicle id="S_N_153" type="standard_car" route="S_N" depart="513.0" departLane="random" departSpeed="10" />
    <vehicle id="N_S_154" type="standard_car" route="N_S" depart="515.0" departLane="random" departSpeed="10" />
    <vehicle id="W_E_155" type="standard_car" route="W_E" depart="520.0" departLane="random" departSpeed="10" />
    <vehicle id="W_E_156" type="standard_car" route="W_E" depart="520.0" departLane="random" departSpeed="10" />
    <vehicle id="N_W_157" type="standard_car" route="N_W" depart="521.0" departLane="random" departSpeed="10" />
    <vehicle id="S_N_158" type="standard_car" route="S_N" depart="527.0" departLane="random" departSpeed="10" />
    <vehicle id="S_N_159" type="standard_car" route="S_N" depart="529.0" departLane="random" departSpeed="10" />
    <vehicle id="W_E_160" type="standard_car" route="W_E" depart="530.0" departLane="random" departSpeed="10" />
    <vehicle id="E_N_161" type="standard_car" route="E_N" depart="534.0" departLane="random" departSpeed="10" />
    <vehicle id="E_W_162" type="standard_car" route="E_W" depart="534.0" departLane="random" departSpeed="10" />
    <vehicle id="E_W_163" type="standard_car" route="E_W" depart="534.0" departLane="random" departSpeed="10" />
    <vehicle id="E_W_164" type="standard_car" route="E_W" depart="534.0" departLane="random" departSpeed="10" />
    <vehicle id="E_W_165" type="standard_car" route="E_W" depart="536.0" departLane="random" departSpeed="10" />
    <vehicle id="W_N_166" type="standard_car" route="W_N" depart="545.0" departLane="random" departSpeed="10" />
    <vehicle id="S_N_167" type="standard_car" route="S_N" depart="546.0" departLane="random" departSpeed="10" />
    <vehicle id="E_S_168" type="standard_car" route="E_S" depart="546.0" departLane="random" departSpeed="10" />
    <vehicle id="E_S_169" type="standard_car" route="E_S" depart="548.0" departLane="random" departSpeed="10" />
    <vehicle id="W_E_170" type="standard_car" route="W_E" depart="548.0" departLane="random" departSpeed="10" />
    <vehicle id="E_W_171" type="standard_car" route="E_W" depart="549.0" departLane="random" departSpeed="10" />
    <vehicle id="S_N_172" type="standard_car" route="S_N" depart="552.0" departLane="random" departSpeed="10" />
    <vehicle id="W_E_173" type="standard_car" route="W_E" depart="552.0" departLane="random" departSpeed="10" />
    <vehicle id="E_W_174" type="standard_car" route="E_W" depart="552.0" departLane="random" departSpeed="10" />
    <vehicle id="W_E_175" type="standard_car" route="W_E" depart="552.0" departLane="random" departSpeed="10" />
    <vehicle id="W_S_176" type="standard_car" route="W_S" depart="554.0" departLane="random" departSpeed="10" />
    <vehicle id="E_W_177" type="standard_car" route="E_W" depart="554.0" departLane="random" departSpeed="10" />
    <vehicle id="W_E_178" type="standard_car" route="W_E" depart="555.0" departLane="random" departSpeed="10" />
    <vehicle id="W_E_179" type="standard_car" route="W_E" depart="557.0" departLane="random" departSpeed="10" />
    <vehicle id="S_E_180" type="standard_car" route="S_E" depart="562.0" departLane="random" departSpeed="10" />
    <vehicle id="E_W_181" type="standard_car" route="E_W" depart="564.0" departLane="random" departSpeed="10" />
    <vehicle id="W_E_182" type="standard_car" route="W_E" depart="565.0" departLane="random" departSpeed="10" />
    <vehicle id="N_S_183" type="standard_car" route="N_S" depart="567.0" departLane="random" departSpeed="10" />
    <vehicle id="E_W_184" type="standard_car" route="E_W" depart="570.0" departLane="random" departSpeed="10" />
    <vehicle id="W_S_185" type="standard_car" route="W_S" depart="570.0" departLane="random" departSpeed="10" />
    <vehicle id="E_S_186" type="standard_car" route="E_S" depart="571.0" departLane="random" departSpeed="10" />
    <vehicle id="E_W_187" type="standard_car" route="E_W" depart="573.0" departLane="random" departSpeed="10" />
    <vehicle id="E_W_188" type="standard_car" route="E_W" depart="575.0" departLane="random" departSpeed="10" />
    <vehicle id="N_S_189" type="standard_car" route="N_S" depart="575.0" departLane="random" departSpeed="10" />
    <vehicle id="S_N_190" type="standard_car" route="S_N" depart="575.0" departLane="random" departSpeed="10" />
    <vehicle id="S_W_191" type="standard_car" route="S_W" depart="576.0" departLane="random" departSpeed="10" />
    <vehicle id="W_E_192" type="standard_car" route="W_E" depart="578.0" departLane="random" departSpeed="10" />
    <vehicle id="W_S_193" type="standard_car" route="W_S" depart="580.0" departLane="random" departSpeed="10" />
    <vehicle id="E_W_194" type="standard_car" route="E_W" depart="580.0" departLane="random" departSpeed="10" />
    <vehicle id="E_W_195" type="standard_car" route="E_W" depart="582.0" departLane="random" departSpeed="10" />
    <vehicle id="E_W_196" type="standard_car" route="E_W" depart="584.0" departLane="random" departSpeed="10" />
    <vehicle id="E_W_197" type="standard_car" route="E_W" depart="585.0" departLane="random" departSpeed="10" />
    <vehicle id="E_N_198" type="standard_car" route="E_N" depart="588.0" departLane="random" departSpeed="10" />
    <vehicle id="W_E_199" type="standard_car" route="W_E" depart="588.0" departLane="random" departSpeed="10" />
    <vehicle id="S_E_200" type="standard_car" route="S_E" depart="590.0" departLane="random" departSpeed="10" />
    <vehicle id="S_N_201" type="standard_car" route="S_N" depart="591.0" departLane="random" departSpeed="10" />
    <vehicle id="E_W_202" type="standard_car" route="E_W" depart="591.0" departLane="random" departSpeed="10" />
    <vehicle id="W_E_203" type="standard_car" route="W_E" depart="592.0" departLane="random" departSpeed="10" />
    <vehicle id="W_E_204" type="standard_car" route="W_E" depart="597.0" departLane="random" departSpeed="10" />
    <vehicle id="E_W_205" type="standard_car" route="E_W" depart="598.0" departLane="random" departSpeed="10" />
    <vehicle id="S_N_206" type="standard_car" route="S_N" depart="603.0" departLane="random" departSpeed="10" />
    <vehicle id="E_W_207" type="standard_car" route="E_W" depart="603.0" departLane="random" departSpeed="10" />
    <vehicle id="N_S_208" type="standard_car" route="N_S" depart="607.0" departLane="random" departSpeed="10" />
    <vehicle id="S_N_209" type="standard_car" route="S_N" depart="608.0" departLane="random" departSpeed="10" />
    <vehicle id="S_E_210" type="standard_car" route="S_E" depart="608.0" departLane="random" departSpeed="10" />
    <vehicle id="N_S_211" type="standard_car" route="N_S" depart="609.0" departLane="random" departSpeed="10" />
    <vehicle id="W_E_212" type="standard_car" route="W_E" depart="616.0" departLane="random" departSpeed="10" />
    <vehicle id="E_N_213" type="standard_car" route="E_N" depart="619.0" departLane="random" departSpeed="10" />
    <vehicle id="E_W_214" type="standard_car" route="E_W" depart="619.0" departLane="random" departSpeed="10" />
    <vehicle id="E_W_215" type="standard_car" route="E_W" depart="619.0" departLane="random" departSpeed="10" />
    <vehicle id="W_E_216" type="standard_car" route="W_E" depart="621.0" departLane="random" departSpeed="10" />
    <vehicle id="N_W_217" type="standard_car" route="N_W" depart="624.0" departLane="random" departSpeed="10" />
    <vehicle id="N_S_218" type="standard_car" route="N_S" depart="624.0" departLane="random" departSpeed="10" />
    <vehicle id="N_S_219" type="standard_car" route="N_S" depart="625.0" departLane="random" departSpeed="10" />
    <vehicle id="N_S_220" type="standard_car" route="N_S" depart="625.0" departLane="random" departSpeed="10" />
    <vehicle id="S_N_221" type="standard_car" route="S_N" depart="627.0" departLane="random" departSpeed="10" />
    <vehicle id="S_N_222" type="standard_car" route="S_N" depart="627.0" departLane="random" departSpeed="10" />
    <vehicle id="W_N_223" type="standard_car" route="W_N" depart="627.0" departLane="random" departSpeed="10" />
    <vehicle id="W_E_224" type="standard_car" route="W_E" depart="628.0" departLane="random" departSpeed="10" />
    <vehicle id="N_W_225" type="standard_car" route="N_W" depart="628.0" departLane="random" departSpeed="10" />
    <vehicle id="S_N_226" type="standard_car" route="S_N" depart="629.0" departLane="random" departSpeed="10" />
    <vehicle id="E_W_227" type="standard_car" route="E_W" depart="629.0" departLane="random" departSpeed="10" />
    <vehicle id="S_E_228" type="standard_car" route="S_E" depart="632.0" departLane="random" departSpeed="10" />
    <vehicle id="N_S_229" type="standard_car" route="N_S" depart="633.0" departLane="random" departSpeed="10" />
    <vehicle id="E_W_230" type="standard_car" route="E_W" depart="633.0" departLane="random" departSpeed="10" />
    <vehicle id="E_W_231" type="standard_car" route="E_W" depart="634.0" departLane="random" departSpeed="10" />
    <vehicle id="S_E_232" type="standard_car" route="S_E" depart="634.0" departLane="random" departSpeed="10" />
    <vehicle id="S_N_233" type="standard_car" route="S_N" depart="635.0" departLane="random" departSpeed="10" />
    <vehicle id="S_W_234" type="standard_car" route="S_W" depart="635.0" departLane="random" departSpeed="10" />
    <vehicle id="W_E_235" type="standard_car" route="W_E" depart="635.0" departLane="random" departSpeed="10" />
    <vehicle id="N_S_236" type="standard_car" route="N_S" depart="636.0" departLane="random" departSpeed="10" />
    <vehicle id="W_E_237" type="standard_car" route="W_E" depart="642.0" departLane="random" departSpeed="10" />
    <vehicle id="W_E_238" type="standard_car" route="W_E" depart="645.0" departLane="random" departSpeed="10" />
    <vehicle id="W_E_239" type="standard_car" route="W_E" depart="648.0" departLane="random" departSpeed="10" />
    <vehicle id="S_N_240" type="standard_car" route="S_N" depart="649.0" departLane="random" departSpeed="10" />
    <vehicle id="W_E_241" type="standard_car" route="W_E" depart="650.0" departLane="random" departSpeed="10" />
    <vehicle id="W_E_242" type="standard_car" route="W_E" depart="650.0" departLane="random" departSpeed="10" />
    <vehicle id="S_N_243" type="standard_car" route="S_N" depart="650.0" departLane="random" departSpeed="10" />
    <vehicle id="N_S_244" type="standard_car" route="N_S" depart="651.0" departLane="random" departSpeed="10" />
    <vehicle id="N_S_245" type="standard_car" route="N_S" depart="652.0" departLane="random" departSpeed="10" />
    <vehicle id="E_W_246" type="standard_car" route="E_W" depart="653.0" departLane="random" departSpeed="10" />
    <vehicle id="N_S_247" type="standard_car" route="N_S" depart="658.0" departLane="random" departSpeed="10" />
    <vehicle id="S_N_248" type="standard_car" route="S_N" depart="659.0" departLane="random" departSpeed="10" />
    <vehicle id="E_W_249" type="standard_car" route="E_W" depart="661.0" departLane="random" departSpeed="10" />
    <vehicle id="N_S_250" type="standard_car" route="N_S" depart="661.0" departLane="random" departSpeed="10" />
    <vehicle id="S_W_251" type="standard_car" route="S_W" depart="664.0" departLane="random" departSpeed="10" />
    <vehicle id="E_W_252" type="standard_car" route="E_W" depart="665.0" departLane="random" departSpeed="10" />
    <vehicle id="E_W_253" type="standard_car" route="E_W" depart="666.0" departLane="random" departSpeed="10" />
    <vehicle id="S_E_254" type="standard_car" route="S_E" depart="667.0" departLane="random" departSpeed="10" />
    <vehicle id="E_N_255" type="standard_car" route="E_N" depart="671.0" departLane="random" departSpeed="10" />
    <vehicle id="S_N_256" type="standard_car" route="S_N" depart="672.0" departLane="random" departSpeed="10" />
    <vehicle id="S_N_257" type="standard_car" route="S_N" depart="677.0" departLane="random" departSpeed="10" />
    <vehicle id="W_N_258" type="standard_car" route="W_N" depart="679.0" departLane="random" departSpeed="10" />