<?xml version="1.0" encoding="UTF-8"?>

<!-- generated on 2023-04-18 23:20:41 by Eclipse SUMO netedit Version 1.16.0
<configuration xmlns:xsi="http://www.w3.org/2001/XMLSchema-instance" xsi:noNamespaceSchemaLocation="http://sumo.dlr.de/xsd/netconvertConfiguration.xsd">

    <input>
        <sumo-net-file value="C:\Users\tadhg_wmtcpnz\Desktop\SUMO-repo\optimal-traffic-control\Practical Basic Lights\simple-roundabout\temp-roundabout.net.xml"/>
    </input>

    <output>
        <output-file value="C:\Users\tadhg_wmtcpnz\Desktop\SUMO-repo\optimal-traffic-control\Practical Basic Lights\simple-roundabout\temp-roundabout.net.xml"/>
    </output>

    <processing>
        <geometry.min-radius.fix.railways value="false"/>
        <geometry.max-grade.fix value="false"/>
        <offset.disable-normalization value="true"/>
        <lefthand value="0"/>
    </processing>

    <junctions>
        <no-turnarounds value="true"/>
        <junctions.corner-detail value="5"/>
        <junctions.limit-turn-speed value="5.50"/>
        <rectangular-lane-cut value="0"/>
    </junctions>

    <pedestrian>
        <walkingareas value="0"/>
    </pedestrian>

</configuration>
-->

<net version="1.16" junctionCornerDetail="5" limitTurnSpeed="5.50" xmlns:xsi="http://www.w3.org/2001/XMLSchema-instance" xsi:noNamespaceSchemaLocation="http://sumo.dlr.de/xsd/net_file.xsd">

    <location netOffset="0.00,0.00" convBoundary="-750.00,-750.00,750.00,750.00" origBoundary="-10000000000.00,-10000000000.00,10000000000.00,10000000000.00" projParameter="!"/>

    <edge id=":J6_0" function="internal">
        <lane id=":J6_0_0" index="0" speed="7.18" length="7.84" shape="-1.60,29.54 -1.90,27.87 -2.82,26.38 -4.34,25.09 -6.46,23.98"/>
    </edge>
    <edge id=":J6_1" function="internal">
        <lane id=":J6_1_0" index="0" speed="7.18" length="7.84" shape="6.46,23.98 4.34,25.09 2.82,26.38 1.90,27.87 1.60,29.54"/>
    </edge>
    <edge id=":J6_2" function="internal">
        <lane id=":J6_2_0" index="0" speed="11.98" length="12.82" shape="6.46,23.98 3.23,24.99 0.00,25.33 -3.23,24.99 -6.46,23.98"/>
        <lane id=":J6_2_1" index="1" speed="11.57" length="12.82" shape="6.02,20.70 3.01,21.64 0.00,21.95 -3.01,21.64 -6.02,20.70"/>
    </edge>
    <edge id=":J7_0" function="internal">
        <lane id=":J7_0_0" index="0" speed="7.18" length="7.84" shape="29.54,1.60 27.87,1.90 26.38,2.82 25.09,4.34 23.98,6.46"/>
    </edge>
    <edge id=":J7_1" function="internal">
        <lane id=":J7_1_0" index="0" speed="7.18" length="7.84" shape="23.98,-6.46 25.09,-4.34 26.38,-2.82 27.87,-1.90 29.54,-1.60"/>
    </edge>
    <edge id=":J7_2" function="internal">
        <lane id=":J7_2_0" index="0" speed="11.98" length="12.82" shape="23.98,-6.46 24.99,-3.23 25.33,0.00 24.99,3.23 23.98,6.46"/>
        <lane id=":J7_2_1" index="1" speed="11.57" length="12.82" shape="20.70,-6.02 21.64,-3.01 21.95,-0.00 21.64,3.01 20.70,6.02"/>
    </edge>
    <edge id=":J8_0" function="internal">
        <lane id=":J8_0_0" index="0" speed="7.18" length="7.84" shape="1.60,-29.54 1.90,-27.87 2.82,-26.38 4.34,-25.09 6.46,-23.98"/>
    </edge>
    <edge id=":J8_1" function="internal">
        <lane id=":J8_1_0" index="0" speed="7.18" length="7.84" shape="-6.46,-23.98 -4.34,-25.09 -2.82,-26.38 -1.90,-27.87 -1.60,-29.54"/>
    </edge>
    <edge id=":J8_2" function="internal">
        <lane id=":J8_2_0" index="0" speed="11.98" length="12.82" shape="-6.46,-23.98 -3.23,-24.99 0.00,-25.33 3.23,-24.99 6.46,-23.98"/>
        <lane id=":J8_2_1" index="1" speed="11.57" length="12.82" shape="-6.02,-20.70 -3.01,-21.64 -0.00,-21.95 3.01,-21.64 6.02,-20.70"/>
    </edge>
    <edge id=":J9_0" function="internal">
        <lane id=":J9_0_0" index="0" speed="7.18" length="7.84" shape="-23.98,6.46 -25.09,4.34 -26.38,2.82 -27.87,1.90 -29.54,1.60"/>
    </edge>
    <edge id=":J9_1" function="internal">
        <lane id=":J9_1_0" index="0" speed="11.98" length="12.82" shape="-23.98,6.46 -24.99,3.23 -25.33,0.00 -24.99,-3.23 -23.98,-6.46"/>
        <lane id=":J9_1_1" index="1" speed="11.57" length="12.82" shape="-20.70,6.02 -21.64,3.01 -21.95,0.00 -21.64,-3.01 -20.70,-6.02"/>
    </edge>
    <edge id=":J9_3" function="internal">
        <lane id=":J9_3_0" index="0" speed="7.18" length="7.84" shape="-29.54,-1.60 -27.87,-1.90 -26.38,-2.82 -25.09,-4.34 -23.98,-6.46"/>
    </edge>

    <edge id="-E0" from="J2" to="J9" priority="-1">
        <lane id="-E0_0" index="0" speed="13.89" length="720.46" shape="-750.00,-1.60 -29.54,-1.60"/>
    </edge>
    <edge id="-E1" from="J3" to="J6" priority="-1">
        <lane id="-E1_0" index="0" speed="13.89" length="720.46" shape="-1.60,750.00 -1.60,29.54"/>
    </edge>
    <edge id="-E2" from="J4" to="J7" priority="-1">
        <lane id="-E2_0" index="0" speed="13.89" length="720.46" shape="750.00,1.60 29.54,1.60"/>
    </edge>
    <edge id="-E3" from="J5" to="J8" priority="-1">
        <lane id="-E3_0" index="0" speed="13.89" length="720.46" shape="1.60,-750.00 1.60,-29.54"/>
    </edge>
    <edge id="E00" from="J9" to="J2" priority="-1">
        <lane id="E00_0" index="0" speed="13.89" length="720.46" shape="-29.54,1.60 -750.00,1.60"/>
    </edge>
    <edge id="E10" from="J6" to="J3" priority="-1">
        <lane id="E10_0" index="0" speed="13.89" length="720.46" shape="1.60,29.54 1.60,750.00"/>
    </edge>
    <edge id="E20" from="J7" to="J4" priority="-1">
        <lane id="E20_0" index="0" speed="13.89" length="720.46" shape="29.54,-1.60 750.00,-1.60"/>
    </edge>
    <edge id="E3" from="J7" to="J6" priority="-1" shape="20.00,0.00 19.32,5.18 17.32,10.00 14.14,14.14 10.00,17.32 5.18,19.32 0.00,20.00">
        <lane id="E3_0" index="0" speed="13.89" length="23.75" shape="23.98,6.46 21.51,12.42 17.56,17.56 12.42,21.51 6.46,23.98"/>
        <lane id="E3_1" index="1" speed="13.89" length="23.75" shape="20.70,6.02 18.72,10.81 15.28,15.28 10.81,18.72 6.02,20.70"/>
    </edge>
    <edge id="E30" from="J8" to="J5" priority="-1">
        <lane id="E30_0" index="0" speed="13.89" length="720.46" shape="-1.60,-29.54 -1.60,-750.00"/>
    </edge>
    <edge id="E4" from="J8" to="J7" priority="-1" shape="0.00,-20.00 5.18,-19.32 10.00,-17.32 14.14,-14.14 17.32,-10.00 19.32,-5.18 20.00,0.00">
        <lane id="E4_0" index="0" speed="13.89" length="23.75" shape="6.46,-23.98 12.42,-21.51 17.56,-17.56 21.51,-12.42 23.98,-6.46"/>
        <lane id="E4_1" index="1" speed="13.89" length="23.75" shape="6.02,-20.70 10.81,-18.72 15.28,-15.28 18.72,-10.81 20.70,-6.02"/>
    </edge>
    <edge id="E5" from="J9" to="J8" priority="-1" shape="-20.00,0.00 -19.32,-5.18 -17.32,-10.00 -14.14,-14.14 -10.00,-17.32 -5.18,-19.32 0.00,-20.00">
        <lane id="E5_0" index="0" speed="13.89" length="23.75" shape="-23.98,-6.46 -21.51,-12.42 -17.56,-17.56 -12.42,-21.51 -6.46,-23.98"/>
        <lane id="E5_1" index="1" speed="13.89" length="23.75" shape="-20.70,-6.02 -18.72,-10.81 -15.28,-15.28 -10.81,-18.72 -6.02,-20.70"/>
    </edge>
    <edge id="E6" from="J6" to="J9" priority="-1" shape="0.00,20.00 -5.18,19.32 -10.00,17.32 -14.14,14.14 -17.32,10.00 -19.32,5.18 -20.00,0.00">
        <lane id="E6_0" index="0" speed="13.89" length="23.75" shape="-6.46,23.98 -12.42,21.51 -17.56,17.56 -21.51,12.42 -23.98,6.46"/>
        <lane id="E6_1" index="1" speed="13.89" length="23.75" shape="-6.02,20.70 -10.81,18.72 -15.28,15.28 -18.72,10.81 -20.70,6.02"/>
    </edge>
<!-- -E0 -E1 -E2 -E3-->
<!-- 9 6 7 8 -->
    <tlLogic id="J6" type="static" programID="0" offset="0">
        <phase duration="100" state="GGrr"/>
        <phase duration="100"  state="yGrr"/>
        <phase duration="100"  state="rGrr"/>
        <phase duration="100" state="rGGG"/>
        <phase duration="100"  state="rGyy"/>
        <phase duration="100"  state="rGrr"/>
    </tlLogic>
    <tlLogic id="J8" type="static" programID="0" offset="0">
        <phase duration="100" state="GGrr"/>
        <phase duration="100"  state="yGrr"/>
        <phase duration="100"  state="rGrr"/>
        <phase duration="100" state="rGGG"/>
        <phase duration="100"  state="rGyy"/>
        <phase duration="100"  state="rGrr"/>
    </tlLogic>
    <tlLogic id="J7" type="static" programID="0" offset="0">
        <phase duration="100" state="rGGG"/>
        <phase duration="100"  state="rGyy"/>
        <phase duration="100"  state="rGrr"/>
        <phase duration="100" state="GGrr"/>
        <phase duration="100"  state="yGrr"/>
        <phase duration="100"  state="rGrr"/>
    </tlLogic>
    <tlLogic id="J9" type="static" programID="0" offset="0">
        <phase duration="100" state="GGGr"/>
        <phase duration="100"  state="Gyyr"/>
        <phase duration="100"  state="Grrr"/>
        <phase duration="100" state="GrrG"/>
        <phase duration="100"  state="Grry"/>
        <phase duration="100"  state="Grrr"/>
    </tlLogic>

    <junction id="J2" type="dead_end" x="-750.00" y="0.00" incLanes="E00_0" intLanes="" shape="-750.00,0.00 -750.00,3.20 -750.00,0.00"/>
    <junction id="J3" type="dead_end" x="0.00" y="750.00" incLanes="E10_0" intLanes="" shape="0.00,750.00 3.20,750.00 0.00,750.00"/>
    <junction id="J4" type="dead_end" x="750.00" y="0.00" incLanes="E20_0" intLanes="" shape="750.00,0.00 750.00,-3.20 750.00,0.00"/>
    <junction id="J5" type="dead_end" x="0.00" y="-750.00" incLanes="E30_0" intLanes="" shape="0.00,-750.00 -3.20,-750.00 0.00,-750.00"/>
    <junction id="J6" type="traffic_light" x="0.00" y="20.00" incLanes="-E1_0 E3_0 E3_1" intLanes=":J6_0_0 :J6_1_0 :J6_2_0 :J6_2_1" shape="-3.20,29.54 3.20,29.54 3.59,27.54 4.07,26.80 4.75,26.22 5.62,25.82 6.68,25.58 5.80,19.06 3.87,19.73 1.93,20.13 -0.00,20.27 -1.93,20.13 -3.87,19.73 -5.80,19.06 -6.68,25.58 -4.75,26.22 -4.07,26.80 -3.59,27.54 -3.30,28.46">
        <request index="0" response="0100" foes="0100" cont="0"/>
        <request index="1" response="0000" foes="0000" cont="0"/>
        <request index="2" response="0000" foes="0001" cont="0"/>
        <request index="3" response="0000" foes="0000" cont="0"/>
    </junction>
    <junction id="J7" type="traffic_light" x="20.00" y="0.00" incLanes="-E2_0 E4_0 E4_1" intLanes=":J7_0_0 :J7_1_0 :J7_2_0 :J7_2_1" shape="29.54,3.20 29.54,-3.20 27.54,-3.59 26.80,-4.07 26.22,-4.75 25.82,-5.62 25.58,-6.68 19.06,-5.80 19.73,-3.87 20.13,-1.93 20.27,0.00 20.13,1.93 19.73,3.87 19.06,5.80 25.58,6.68 26.22,4.75 26.80,4.07 27.54,3.59 28.46,3.30">
        <request index="0" response="0100" foes="0100" cont="0"/>
        <request index="1" response="0000" foes="0000" cont="0"/>
        <request index="2" response="0000" foes="0001" cont="0"/>
        <request index="3" response="0000" foes="0000" cont="0"/>
    </junction>
    <junction id="J8" type="traffic_light" x="0.00" y="-20.00" incLanes="-E3_0 E5_0 E5_1" intLanes=":J8_0_0 :J8_1_0 :J8_2_0 :J8_2_1" shape="5.80,-19.06 6.68,-25.58 4.75,-26.22 4.07,-26.80 3.59,-27.54 3.30,-28.46 3.20,-29.54 -3.20,-29.54 -3.59,-27.54 -4.07,-26.80 -4.75,-26.22 -5.62,-25.82 -6.68,-25.58 -5.80,-19.06 -3.87,-19.73 -1.93,-20.13 0.00,-20.27 1.93,-20.13 3.87,-19.73">
        <request index="0" response="0100" foes="0100" cont="0"/>
        <request index="1" response="0000" foes="0000" cont="0"/>
        <request index="2" response="0000" foes="0001" cont="0"/>
        <request index="3" response="0000" foes="0000" cont="0"/>
    </junction>
    <junction id="J9" type="traffic_light" x="-20.00" y="0.00" incLanes="E6_0 E6_1 -E0_0" intLanes=":J9_0_0 :J9_1_0 :J9_1_1 :J9_3_0" shape="-25.58,6.68 -19.06,5.80 -19.73,3.87 -20.13,1.93 -20.27,-0.00 -20.13,-1.93 -19.73,-3.87 -19.06,-5.80 -25.58,-6.68 -26.22,-4.75 -26.80,-4.07 -27.54,-3.59 -28.46,-3.30 -29.54,-3.20 -29.54,3.20 -27.54,3.59 -26.80,4.07 -26.22,4.75 -25.82,5.62">
        <request index="0" response="0000" foes="0000" cont="0"/>
        <request index="1" response="0000" foes="1000" cont="0"/>
        <request index="2" response="0000" foes="0000" cont="0"/>
        <request index="3" response="0010" foes="0010" cont="0"/>
    </junction>

    <connection from="-E0" to="E5" fromLane="0" toLane="0" via=":J9_3_0" tl="J9" linkIndex="3" dir="r" state="o" visibility="9.00"/>
    <connection from="-E1" to="E6" fromLane="0" toLane="0" via=":J6_0_0" tl="J6" linkIndex="0" dir="r" state="o" visibility="9.00"/>
    <connection from="-E2" to="E3" fromLane="0" toLane="0" via=":J7_0_0" tl="J7" linkIndex="0" dir="r" state="o" visibility="9.00"/>
    <connection from="-E3" to="E4" fromLane="0" toLane="0" via=":J8_0_0" tl="J8" linkIndex="0" dir="r" state="o" visibility="9.00"/>
    <connection from="E3" to="E10" fromLane="0" toLane="0" via=":J6_1_0" tl="J6" linkIndex="1" dir="r" state="O"/>
    <connection from="E3" to="E6" fromLane="0" toLane="0" via=":J6_2_0" tl="J6" linkIndex="2" dir="s" state="O"/>
    <connection from="E3" to="E6" fromLane="1" toLane="1" via=":J6_2_1" tl="J6" linkIndex="3" dir="s" state="O"/>
    <connection from="E4" to="E20" fromLane="0" toLane="0" via=":J7_1_0" tl="J7" linkIndex="1" dir="r" state="O"/>
    <connection from="E4" to="E3" fromLane="0" toLane="0" via=":J7_2_0" tl="J7" linkIndex="2" dir="s" state="O"/>
    <connection from="E4" to="E3" fromLane="1" toLane="1" via=":J7_2_1" tl="J7" linkIndex="3" dir="s" state="O"/>
    <connection from="E5" to="E30" fromLane="0" toLane="0" via=":J8_1_0" tl="J8" linkIndex="1" dir="r" state="O"/>
    <connection from="E5" to="E4" fromLane="0" toLane="0" via=":J8_2_0" tl="J8" linkIndex="2" dir="s" state="O"/>
    <connection from="E5" to="E4" fromLane="1" toLane="1" via=":J8_2_1" tl="J8" linkIndex="3" dir="s" state="O"/>
    <connection from="E6" to="E00" fromLane="0" toLane="0" via=":J9_0_0" tl="J9" linkIndex="0" dir="r" state="O"/>
    <connection from="E6" to="E5" fromLane="0" toLane="0" via=":J9_1_0" tl="J9" linkIndex="1" dir="s" state="O"/>
    <connection from="E6" to="E5" fromLane="1" toLane="1" via=":J9_1_1" tl="J9" linkIndex="2" dir="s" state="O"/>

    <connection from=":J6_0" to="E6" fromLane="0" toLane="0" dir="r" state="M"/>
    <connection from=":J6_1" to="E10" fromLane="0" toLane="0" dir="r" state="M"/>
    <connection from=":J6_2" to="E6" fromLane="0" toLane="0" dir="s" state="M"/>
    <connection from=":J6_2" to="E6" fromLane="1" toLane="1" dir="s" state="M"/>
    <connection from=":J7_0" to="E3" fromLane="0" toLane="0" dir="r" state="M"/>
    <connection from=":J7_1" to="E20" fromLane="0" toLane="0" dir="r" state="M"/>
    <connection from=":J7_2" to="E3" fromLane="0" toLane="0" dir="s" state="M"/>
    <connection from=":J7_2" to="E3" fromLane="1" toLane="1" dir="s" state="M"/>
    <connection from=":J8_0" to="E4" fromLane="0" toLane="0" dir="r" state="M"/>
    <connection from=":J8_1" to="E30" fromLane="0" toLane="0" dir="r" state="M"/>
    <connection from=":J8_2" to="E4" fromLane="0" toLane="0" dir="s" state="M"/>
    <connection from=":J8_2" to="E4" fromLane="1" toLane="1" dir="s" state="M"/>
    <connection from=":J9_0" to="E00" fromLane="0" toLane="0" dir="r" state="M"/>
    <connection from=":J9_1" to="E5" fromLane="0" toLane="0" dir="s" state="M"/>
    <connection from=":J9_1" to="E5" fromLane="1" toLane="1" dir="s" state="M"/>
    <connection from=":J9_3" to="E5" fromLane="0" toLane="0" dir="r" state="M"/>

    <roundabout nodes="J6 J7 J8 J9" edges="E3 E4 E5 E6"/>

</net>
