<?xml version="1.0" encoding="UTF-8"?>

<!-- generated on 2023-01-12 17:41:10 by Eclipse SUMO netconvert Version 1.14.1
<configuration xmlns:xsi="http://www.w3.org/2001/XMLSchema-instance" xsi:noNamespaceSchemaLocation="http://sumo.dlr.de/xsd/netconvertConfiguration.xsd">

    <input>
        <type-files value="osmNetconvert.typ.xml"/>
        <osm-files value="map.osm"/>
    </input>

    <output>
        <output-file value="test.net.xml"/>
    </output>

    <projection>
        <proj.utm value="true"/>
    </projection>

    <report>
        <xml-validation value="never"/>
    </report>

</configuration>
-->

<net version="1.9" junctionCornerDetail="5" limitTurnSpeed="5.50" xmlns:xsi="http://www.w3.org/2001/XMLSchema-instance" xsi:noNamespaceSchemaLocation="http://sumo.dlr.de/xsd/net_file.xsd">

    <location netOffset="-535658.46,-5746882.17" convBoundary="0.00,0.00,2210.10,536.57" origBoundary="-8.482017,51.871532,-8.449926,51.876354" projParameter="+proj=utm +zone=29 +ellps=WGS84 +datum=WGS84 +units=m +no_defs"/>

    <type id="highway.bridleway" priority="1" numLanes="1" speed="2.78" allow="pedestrian" oneway="1" width="2.00"/>
    <type id="highway.bus_guideway" priority="1" numLanes="1" speed="27.78" allow="bus" oneway="1"/>
    <type id="highway.cycleway" priority="1" numLanes="1" speed="5.56" allow="bicycle" oneway="0" width="1.00"/>
    <type id="highway.footway" priority="1" numLanes="1" speed="2.78" allow="pedestrian" oneway="1" width="2.00"/>
    <type id="highway.ford" priority="1" numLanes="1" speed="2.78" allow="army" oneway="0"/>
    <type id="highway.living_street" priority="2" numLanes="1" speed="2.78" disallow="tram rail_urban rail rail_electric rail_fast ship" oneway="0"/>
    <type id="highway.motorway" priority="14" numLanes="2" speed="39.44" allow="private emergency authority army vip passenger hov taxi bus coach delivery truck trailer motorcycle evehicle custom1 custom2" oneway="1"/>
    <type id="highway.motorway_link" priority="9" numLanes="1" speed="22.22" allow="private emergency authority army vip passenger hov taxi bus coach delivery truck trailer motorcycle evehicle custom1 custom2" oneway="1"/>
    <type id="highway.path" priority="1" numLanes="1" speed="5.56" allow="pedestrian bicycle" oneway="0" width="2.00"/>
    <type id="highway.pedestrian" priority="1" numLanes="1" speed="2.78" allow="pedestrian" oneway="1" width="2.00"/>
    <type id="highway.primary" priority="12" numLanes="2" speed="27.78" disallow="tram rail_urban rail rail_electric rail_fast ship" oneway="0"/>
    <type id="highway.primary_link" priority="7" numLanes="1" speed="22.22" disallow="tram rail_urban rail rail_electric rail_fast ship" oneway="0"/>
    <type id="highway.raceway" priority="15" numLanes="2" speed="83.33" allow="vip" oneway="0"/>
    <type id="highway.residential" priority="3" numLanes="1" speed="13.89" disallow="tram rail_urban rail rail_electric rail_fast ship" oneway="0"/>
    <type id="highway.secondary" priority="11" numLanes="1" speed="27.78" disallow="tram rail_urban rail rail_electric rail_fast ship" oneway="0"/>
    <type id="highway.secondary_link" priority="6" numLanes="1" speed="22.22" disallow="tram rail_urban rail rail_electric rail_fast ship" oneway="0"/>
    <type id="highway.service" priority="1" numLanes="1" speed="5.56" allow="pedestrian delivery bicycle" oneway="0"/>
    <type id="highway.stairs" priority="1" numLanes="1" speed="1.39" allow="pedestrian" oneway="1" width="2.00"/>
    <type id="highway.step" priority="1" numLanes="1" speed="1.39" allow="pedestrian" oneway="1" width="2.00"/>
    <type id="highway.steps" priority="1" numLanes="1" speed="1.39" allow="pedestrian" oneway="1" width="2.00"/>
    <type id="highway.tertiary" priority="10" numLanes="1" speed="22.22" disallow="tram rail_urban rail rail_electric rail_fast ship" oneway="0"/>
    <type id="highway.tertiary_link" priority="5" numLanes="1" speed="22.22" disallow="tram rail_urban rail rail_electric rail_fast ship" oneway="0"/>
    <type id="highway.track" priority="1" numLanes="1" speed="5.56" allow="pedestrian motorcycle moped bicycle" oneway="0"/>
    <type id="highway.trunk" priority="13" numLanes="2" speed="27.78" disallow="pedestrian bicycle tram rail_urban rail rail_electric rail_fast ship" oneway="0"/>
    <type id="highway.trunk_link" priority="8" numLanes="1" speed="22.22" disallow="pedestrian bicycle tram rail_urban rail rail_electric rail_fast ship" oneway="0"/>
    <type id="highway.unclassified" priority="4" numLanes="1" speed="13.89" disallow="tram rail_urban rail rail_electric rail_fast ship" oneway="0"/>
    <type id="highway.unsurfaced" priority="1" numLanes="1" speed="8.33" disallow="tram rail_urban rail rail_electric rail_fast ship" oneway="0"/>
    <type id="railway.highspeed" priority="21" numLanes="1" speed="69.44" allow="rail_fast" oneway="1"/>
    <type id="railway.light_rail" priority="19" numLanes="1" speed="27.78" allow="rail_urban" oneway="1"/>
    <type id="railway.preserved" priority="16" numLanes="1" speed="27.78" allow="rail" oneway="1"/>
    <type id="railway.rail" priority="20" numLanes="1" speed="44.44" allow="rail" oneway="1"/>
    <type id="railway.subway" priority="18" numLanes="1" speed="27.78" allow="rail_urban" oneway="1"/>
    <type id="railway.tram" priority="17" numLanes="1" speed="13.89" allow="tram" oneway="1"/>

    <edge id=":10380987_0" function="internal">
        <lane id=":10380987_0_0" index="0" disallow="bicycle tram rail_urban rail rail_electric rail_fast ship" speed="7.65" length="26.53" shape="476.18,33.59 485.80,35.58 489.28,35.50 486.60,33.34 477.78,29.11"/>
        <lane id=":10380987_0_1" index="1" disallow="bicycle tram rail_urban rail rail_electric rail_fast ship" speed="4.84" length="9.34" shape="477.26,30.56 473.87,29.86 472.65,29.89 473.59,30.65 476.70,32.13"/>
        <lane id=":10380987_0_2" index="2" disallow="bicycle tram rail_urban rail rail_electric rail_fast ship" speed="7.70" length="26.95" shape="477.26,30.56 467.34,28.50 463.67,28.54 466.25,30.68 475.08,34.92"/>
    </edge>
    <edge id=":10381060_0" function="internal">
        <lane id=":10381060_0_0" index="0" disallow="tram rail_urban rail rail_electric rail_fast ship" speed="7.61" length="26.64" shape="769.52,301.14 763.86,309.01 762.53,311.93 765.53,309.91 772.86,302.93"/>
    </edge>
    <edge id=":10381060_1" function="internal">
        <lane id=":10381060_1_0" index="0" disallow="tram rail_urban rail rail_electric rail_fast ship" speed="13.89" length="18.98" shape="769.52,301.14 767.66,304.99 766.44,309.94 765.61,315.07 764.90,319.43"/>
    </edge>
    <edge id=":10381060_2" function="internal">
        <lane id=":10381060_2_0" index="0" allow="pedestrian delivery bicycle" speed="7.81" length="13.30" shape="769.52,301.14 765.54,306.18 762.47,309.54 760.64,310.98"/>
    </edge>
    <edge id=":10381060_9" function="internal">
        <lane id=":10381060_9_0" index="0" allow="pedestrian delivery bicycle" speed="7.81" length="1.67" shape="760.64,310.98 760.31,311.24 759.06,311.27"/>
    </edge>
    <edge id=":10381060_3" function="internal">
        <lane id=":10381060_3_0" index="0" allow="pedestrian delivery bicycle" speed="8.46" length="16.07" shape="761.35,309.03 764.05,310.66 767.26,310.55 770.98,308.70 775.21,305.11"/>
    </edge>
    <edge id=":10381060_4" function="internal">
        <lane id=":10381060_4_0" index="0" allow="pedestrian delivery bicycle" speed="9.64" length="11.45" shape="761.35,309.03 763.32,311.47 764.57,314.01 765.09,316.67 764.90,319.43"/>
    </edge>
    <edge id=":10381060_5" function="internal">
        <lane id=":10381060_5_0" index="0" allow="pedestrian delivery bicycle" speed="3.65" length="4.67" shape="761.35,309.03 761.61,310.45 761.32,311.29 760.47,311.57 759.06,311.27"/>
    </edge>
    <edge id=":10381060_6" function="internal">
        <lane id=":10381060_6_0" index="0" allow="pedestrian delivery bicycle" speed="8.30" length="8.33" shape="761.76,318.81 761.89,316.84 761.48,314.93 760.54,313.08 759.06,311.27"/>
    </edge>
    <edge id=":10381060_7" function="internal">
        <lane id=":10381060_7_0" index="0" disallow="tram rail_urban rail rail_electric rail_fast ship" speed="13.89" length="19.45" shape="761.76,318.81 763.31,315.55 766.30,312.66 770.38,309.42 775.21,305.11"/>
    </edge>
    <edge id=":10381060_8" function="internal">
        <lane id=":10381060_8_0" index="0" disallow="tram rail_urban rail rail_electric rail_fast ship" speed="3.65" length="1.44" shape="761.76,318.81 762.78,317.78"/>
    </edge>
    <edge id=":10381060_10" function="internal">
        <lane id=":10381060_10_0" index="0" disallow="tram rail_urban rail rail_electric rail_fast ship" speed="3.65" length="3.23" shape="762.78,317.78 763.64,317.55 764.34,318.10 764.90,319.43"/>
    </edge>
    <edge id=":1138340959_0" function="internal">
        <lane id=":1138340959_0_0" index="0" disallow="pedestrian bicycle tram rail_urban rail rail_electric rail_fast ship" speed="19.44" length="8.09" shape="996.18,225.02 993.77,224.89 992.09,225.16 990.41,225.39 988.02,225.15"/>
        <lane id=":1138340959_0_1" index="1" disallow="pedestrian bicycle tram rail_urban rail rail_electric rail_fast ship" speed="19.44" length="8.09" shape="996.68,221.86 994.31,221.73 992.66,222.01 991.02,222.25 988.67,222.02"/>
        <lane id=":1138340959_0_2" index="2" disallow="pedestrian bicycle tram rail_urban rail rail_electric rail_fast ship" speed="19.44" length="8.09" shape="996.68,221.86 994.43,221.25 992.99,220.44 991.56,219.60 989.32,218.88"/>
    </edge>
    <edge id=":1138340970_0" function="internal">
        <lane id=":1138340970_0_0" index="0" allow="pedestrian delivery bicycle" speed="3.65" length="4.67" shape="821.50,129.98 822.61,130.89 822.93,131.73 822.45,132.49 821.17,133.16"/>
    </edge>
    <edge id=":1138341012_0" function="internal">
        <lane id=":1138341012_0_0" index="0" disallow="pedestrian bicycle tram rail_urban rail rail_electric rail_fast ship" speed="27.78" length="6.80" shape="868.64,288.12 867.63,286.06 867.01,284.60 866.59,283.08 866.20,280.82"/>
        <lane id=":1138341012_0_1" index="1" disallow="pedestrian bicycle tram rail_urban rail rail_electric rail_fast ship" speed="27.78" length="6.80" shape="871.52,286.72 870.63,284.91 870.08,283.63 869.71,282.30 869.36,280.32"/>
        <lane id=":1138341012_0_2" index="2" disallow="pedestrian bicycle tram rail_urban rail rail_electric rail_fast ship" speed="27.78" length="6.80" shape="874.39,285.32 873.63,283.76 873.15,282.66 872.82,281.52 872.52,279.82"/>
    </edge>
    <edge id=":1138341020_0" function="internal">
        <lane id=":1138341020_0_0" index="0" disallow="bicycle tram rail_urban rail rail_electric rail_fast ship" speed="27.78" length="0.62" shape="791.48,181.74 791.50,181.80 791.52,181.84 791.54,181.87 791.57,181.93"/>
        <lane id=":1138341020_0_1" index="1" disallow="bicycle tram rail_urban rail rail_electric rail_fast ship" speed="27.78" length="0.62" shape="788.53,182.99 788.60,183.16 788.65,183.27 788.71,183.38 788.81,183.54"/>
        <lane id=":1138341020_0_2" index="2" disallow="bicycle tram rail_urban rail rail_electric rail_fast ship" speed="27.78" length="0.62" shape="785.58,184.23 785.70,184.51 785.79,184.70 785.89,184.89 786.04,185.15"/>
    </edge>
    <edge id=":1138341046_0" function="internal">
        <lane id=":1138341046_0_0" index="0" disallow="bicycle tram rail_urban rail rail_electric rail_fast ship" speed="27.78" length="3.63" shape="864.27,206.43 867.13,209.68"/>
        <lane id=":1138341046_0_1" index="1" disallow="bicycle tram rail_urban rail rail_electric rail_fast ship" speed="27.78" length="3.63" shape="867.09,204.92 869.55,207.58"/>
        <lane id=":1138341046_0_2" index="2" disallow="bicycle tram rail_urban rail rail_electric rail_fast ship" speed="27.78" length="3.63" shape="869.91,203.40 871.97,205.49"/>
    </edge>
    <edge id=":1138341055_0" function="internal">
        <lane id=":1138341055_0_0" index="0" disallow="pedestrian bicycle tram rail_urban rail rail_electric rail_fast ship" speed="17.44" length="8.02" shape="885.66,282.93 885.44,280.59 885.59,278.97 886.05,277.38 886.73,275.09"/>
    </edge>
    <edge id=":1138341074_0" function="internal">
        <lane id=":1138341074_0_0" index="0" allow="pedestrian delivery bicycle" speed="3.65" length="4.67" shape="820.40,70.72 821.78,71.15 822.39,71.81 822.23,72.69 821.30,73.79"/>
    </edge>
    <edge id=":1514163695_0" function="internal">
        <lane id=":1514163695_0_0" index="0" disallow="bicycle tram rail_urban rail rail_electric rail_fast ship" speed="27.78" length="10.59" shape="786.36,261.17 787.87,263.67 789.39,265.03 791.14,266.24 793.37,268.27"/>
        <lane id=":1514163695_0_1" index="1" disallow="bicycle tram rail_urban rail rail_electric rail_fast ship" speed="27.78" length="10.59" shape="783.46,262.52 785.01,265.12 786.54,266.58 788.31,267.86 790.59,269.97"/>
        <lane id=":1514163695_0_2" index="2" disallow="bicycle tram rail_urban rail rail_electric rail_fast ship" speed="27.78" length="10.59" shape="780.56,263.88 782.14,266.58 783.68,268.12 785.47,269.48 787.81,271.68"/>
        <lane id=":1514163695_0_3" index="3" disallow="bicycle tram rail_urban rail rail_electric rail_fast ship" speed="27.78" length="10.59" shape="777.67,265.24 779.28,268.04 780.83,269.66 782.64,271.10 785.03,273.38"/>
    </edge>
    <edge id=":1514163695_4" function="internal">
        <lane id=":1514163695_4_0" index="0" disallow="bicycle tram rail_urban rail rail_electric rail_fast ship" speed="13.90" length="10.14" shape="777.67,265.24 778.82,267.98 779.27,269.99 779.22,272.09 778.87,275.07"/>
    </edge>
    <edge id=":1515447425_0" function="internal">
        <lane id=":1515447425_0_0" index="0" disallow="bicycle tram rail_urban rail rail_electric rail_fast ship" speed="5.51" length="7.34" shape="733.19,150.72 732.83,152.21 733.40,153.47 734.92,154.51 737.37,155.31"/>
    </edge>
    <edge id=":1515447425_1" function="internal">
        <lane id=":1515447425_1_0" index="0" disallow="pedestrian bicycle tram rail_urban rail rail_electric rail_fast ship" speed="22.22" length="15.66" shape="733.19,150.72 725.80,164.52"/>
    </edge>
    <edge id=":1515447425_2" function="internal">
        <lane id=":1515447425_2_0" index="0" disallow="bicycle tram rail_urban rail rail_electric rail_fast ship" speed="22.22" length="11.80" shape="726.03,152.29 737.37,155.31"/>
        <lane id=":1515447425_2_1" index="1" disallow="bicycle tram rail_urban rail rail_electric rail_fast ship" speed="22.22" length="11.80" shape="725.12,155.35 736.52,158.40"/>
        <lane id=":1515447425_2_2" index="2" disallow="bicycle tram rail_urban rail rail_electric rail_fast ship" speed="22.22" length="11.80" shape="724.23,158.37 735.67,161.49"/>
    </edge>
    <edge id=":1515447425_5" function="internal">
        <lane id=":1515447425_5_0" index="0" disallow="pedestrian bicycle tram rail_urban rail rail_electric rail_fast ship" speed="5.67" length="7.58" shape="724.23,158.37 725.91,159.26 726.73,160.58 726.70,162.33 725.80,164.52"/>
    </edge>
    <edge id=":2036617_0" function="internal">
        <lane id=":2036617_0_0" index="0" disallow="bicycle tram rail_urban rail rail_electric rail_fast ship" speed="27.78" length="1.58" shape="779.15,233.09 779.13,233.21 779.12,233.29 779.12,233.37 779.12,233.48"/>
        <lane id=":2036617_0_1" index="1" disallow="bicycle tram rail_urban rail rail_electric rail_fast ship" speed="27.78" length="1.58" shape="776.01,232.49 775.94,232.83 775.91,233.07 775.91,233.31 775.93,233.66"/>
        <lane id=":2036617_0_2" index="2" disallow="bicycle tram rail_urban rail rail_electric rail_fast ship" speed="27.78" length="1.58" shape="772.86,231.88 772.76,232.46 772.71,232.86 772.70,233.26 772.73,233.85"/>
        <lane id=":2036617_0_3" index="3" disallow="bicycle tram rail_urban rail rail_electric rail_fast ship" speed="27.78" length="1.58" shape="769.72,231.28 769.57,232.08 769.50,232.64 769.50,233.21 769.54,234.03"/>
    </edge>
    <edge id=":2036623_0" function="internal">
        <lane id=":2036623_0_0" index="0" disallow="bicycle tram rail_urban rail rail_electric rail_fast ship" speed="27.78" length="13.58" shape="798.08,272.67 801.15,274.69 803.20,276.20 805.37,277.43 808.79,278.63"/>
        <lane id=":2036623_0_1" index="1" disallow="bicycle tram rail_urban rail rail_electric rail_fast ship" speed="27.78" length="13.58" shape="796.44,275.42 799.72,277.56 801.93,279.14 804.26,280.44 807.91,281.71"/>
        <lane id=":2036623_0_2" index="2" disallow="bicycle tram rail_urban rail rail_electric rail_fast ship" speed="27.78" length="13.58" shape="794.80,278.16 798.29,280.43 800.65,282.09 803.14,283.44 807.03,284.78"/>
        <lane id=":2036623_0_3" index="3" disallow="bicycle tram rail_urban rail rail_electric rail_fast ship" speed="27.78" length="13.58" shape="793.16,280.91 796.86,283.30 799.37,285.04 802.02,286.45 806.15,287.86"/>
    </edge>
    <edge id=":2036623_4" function="internal">
        <lane id=":2036623_4_0" index="0" disallow="bicycle tram rail_urban rail rail_electric rail_fast ship" speed="12.77" length="14.94" shape="793.03,287.66 796.90,285.49 799.81,284.20 802.83,283.92 807.03,284.78"/>
        <lane id=":2036623_4_1" index="1" disallow="bicycle tram rail_urban rail rail_electric rail_fast ship" speed="11.68" length="12.42" shape="794.57,290.47 797.77,288.63 800.17,287.48 802.67,287.18 806.15,287.86"/>
    </edge>
    <edge id=":2272255777_0" function="internal">
        <lane id=":2272255777_0_0" index="0" allow="bicycle" speed="5.56" length="18.28" width="1.00" shape="750.71,308.43 748.43,305.02 744.59,301.86 740.66,298.73 738.12,295.40"/>
    </edge>
    <edge id=":2272255777_1" function="internal">
        <lane id=":2272255777_1_0" index="0" allow="bicycle" speed="5.56" length="17.76" width="1.00" shape="750.71,308.43 749.35,301.88 749.85,298.70 752.20,298.89 756.41,302.43"/>
    </edge>
    <edge id=":2272255777_2" function="internal">
        <lane id=":2272255777_2_0" index="0" allow="bicycle" speed="2.07" length="1.53" width="1.00" shape="750.71,308.43 750.72,307.96 750.86,307.70 751.16,307.67 751.59,307.86"/>
    </edge>
    <edge id=":2272255777_3" function="internal">
        <lane id=":2272255777_3_0" index="0" allow="bicycle" speed="3.70" length="4.00" width="1.00" shape="752.92,306.59 751.96,305.77 751.41,305.71 751.29,306.41 751.59,307.86"/>
    </edge>
    <edge id=":2272255777_4" function="internal">
        <lane id=":2272255777_4_0" index="0" allow="pedestrian delivery bicycle" speed="5.56" length="18.31" shape="753.70,305.82 750.21,303.28 745.79,300.82 741.69,298.16 739.15,295.00"/>
    </edge>
    <edge id=":2272255777_5" function="internal">
        <lane id=":2272255777_5_0" index="0" allow="pedestrian delivery bicycle" speed="3.67" length="1.46" shape="753.70,305.82 753.20,304.44"/>
    </edge>
    <edge id=":2272255777_9" function="internal">
        <lane id=":2272255777_9_0" index="0" allow="pedestrian delivery bicycle" speed="3.67" length="3.27" shape="753.20,304.44 753.36,303.55 754.16,303.14 755.62,303.20"/>
    </edge>
    <edge id=":2272255777_6" function="internal">
        <lane id=":2272255777_6_0" index="0" allow="pedestrian delivery bicycle" speed="5.56" length="18.20" shape="741.45,292.07 743.93,295.28 747.90,298.05 752.18,300.61 755.62,303.20"/>
    </edge>
    <edge id=":2272255777_7" function="internal">
        <lane id=":2272255777_7_0" index="0" allow="bicycle" speed="5.56" length="9.60" width="1.00" shape="740.42,292.47 742.74,296.16 746.18,300.10"/>
    </edge>
    <edge id=":2272255777_8" function="internal">
        <lane id=":2272255777_8_0" index="0" allow="pedestrian delivery bicycle" speed="3.85" length="2.24" shape="741.45,292.07 741.97,293.66 741.86,294.21"/>
    </edge>
    <edge id=":2272255777_10" function="internal">
        <lane id=":2272255777_10_0" index="0" allow="bicycle" speed="5.56" length="9.50" width="1.00" shape="746.18,300.10 749.53,304.08 751.59,307.86"/>
    </edge>
    <edge id=":2272255777_11" function="internal">
        <lane id=":2272255777_11_0" index="0" allow="pedestrian delivery bicycle" speed="3.85" length="3.21" shape="741.86,294.21 741.76,294.69 740.82,295.13 739.15,295.00"/>
    </edge>
    <edge id=":241744826_0" function="internal">
        <lane id=":241744826_0_0" index="0" disallow="bicycle tram rail_urban rail rail_electric rail_fast ship" speed="27.78" length="15.56" shape="779.48,242.25 780.57,246.49 781.32,249.40 782.29,252.23 784.05,256.23"/>
        <lane id=":241744826_0_1" index="1" disallow="bicycle tram rail_urban rail rail_electric rail_fast ship" speed="27.78" length="15.56" shape="776.39,243.10 777.53,247.49 778.31,250.51 779.32,253.44 781.15,257.58"/>
        <lane id=":241744826_0_2" index="2" disallow="bicycle tram rail_urban rail rail_electric rail_fast ship" speed="27.78" length="15.56" shape="773.30,243.94 774.48,248.49 775.30,251.62 776.36,254.65 778.25,258.94"/>
        <lane id=":241744826_0_3" index="3" disallow="bicycle tram rail_urban rail rail_electric rail_fast ship" speed="27.78" length="15.56" shape="770.22,244.79 771.44,249.49 772.29,252.72 773.39,255.86 775.35,260.30"/>
    </edge>
    <edge id=":241744826_4" function="internal">
        <lane id=":241744826_4_0" index="0" disallow="pedestrian bicycle tram rail_urban rail rail_electric rail_fast ship" speed="13.98" length="19.64" shape="765.33,246.79 771.06,248.96 775.60,251.49 778.96,254.36 781.15,257.58"/>
        <lane id=":241744826_4_1" index="1" disallow="pedestrian bicycle tram rail_urban rail rail_electric rail_fast ship" speed="13.03" length="17.00" shape="764.37,249.85 769.47,251.75 773.48,253.90 776.41,256.30 778.25,258.94"/>
        <lane id=":241744826_4_2" index="2" disallow="pedestrian bicycle tram rail_urban rail rail_electric rail_fast ship" speed="12.01" length="14.37" shape="763.40,252.90 767.88,254.54 771.37,256.32 773.86,258.24 775.35,260.30"/>
    </edge>
    <edge id=":241752077_0" function="internal">
        <lane id=":241752077_0_0" index="0" disallow="pedestrian bicycle tram rail_urban rail rail_electric rail_fast ship" speed="27.78" length="0.38" shape="753.02,220.69 753.65,220.67"/>
        <lane id=":241752077_0_1" index="1" disallow="pedestrian bicycle tram rail_urban rail rail_electric rail_fast ship" speed="27.78" length="0.38" shape="753.22,223.88 753.60,223.87"/>
        <lane id=":241752077_0_2" index="2" disallow="pedestrian bicycle tram rail_urban rail rail_electric rail_fast ship" speed="27.78" length="0.38" shape="753.42,227.07 753.54,227.07"/>
    </edge>
    <edge id=":241752097_0" function="internal">
        <lane id=":241752097_0_0" index="0" disallow="pedestrian bicycle tram rail_urban rail rail_electric rail_fast ship" speed="27.78" length="8.14" shape="892.25,221.38 889.90,221.28 888.28,221.62 886.65,221.98 884.29,221.97"/>
        <lane id=":241752097_0_1" index="1" disallow="pedestrian bicycle tram rail_urban rail rail_electric rail_fast ship" speed="27.78" length="8.14" shape="892.72,218.21 890.33,218.11 888.68,218.44 887.03,218.80 884.63,218.79"/>
        <lane id=":241752097_0_2" index="2" disallow="pedestrian bicycle tram rail_urban rail rail_electric rail_fast ship" speed="27.78" length="8.14" shape="892.72,218.21 890.37,217.61 888.85,216.85 887.33,216.12 884.97,215.61"/>
    </edge>
    <edge id=":241752098_0" function="internal">
        <lane id=":241752098_0_0" index="0" disallow="pedestrian bicycle tram rail_urban rail rail_electric rail_fast ship" speed="27.78" length="0.29" shape="758.59,215.21 758.34,215.22"/>
        <lane id=":241752098_0_1" index="1" disallow="pedestrian bicycle tram rail_urban rail rail_electric rail_fast ship" speed="27.78" length="0.29" shape="758.57,212.01 758.28,212.02"/>
        <lane id=":241752098_0_2" index="2" disallow="pedestrian bicycle tram rail_urban rail rail_electric rail_fast ship" speed="27.78" length="0.29" shape="758.55,208.81 758.22,208.82"/>
    </edge>
    <edge id=":241752179_0" function="internal">
        <lane id=":241752179_0_0" index="0" disallow="pedestrian bicycle tram rail_urban rail rail_electric rail_fast ship" speed="27.78" length="0.40" shape="891.16,229.38 891.68,229.45"/>
        <lane id=":241752179_0_1" index="1" disallow="pedestrian bicycle tram rail_urban rail rail_electric rail_fast ship" speed="27.78" length="0.40" shape="890.77,232.55 891.17,232.61"/>
        <lane id=":241752179_0_2" index="2" disallow="pedestrian bicycle tram rail_urban rail rail_electric rail_fast ship" speed="27.78" length="0.40" shape="890.38,235.73 890.65,235.77"/>
    </edge>
    <edge id=":241755633_0" function="internal">
        <lane id=":241755633_0_0" index="0" disallow="pedestrian bicycle tram rail_urban rail rail_electric rail_fast ship" speed="16.67" length="0.38" shape="761.68,245.44 761.42,245.32"/>
        <lane id=":241755633_0_1" index="1" disallow="pedestrian bicycle tram rail_urban rail rail_electric rail_fast ship" speed="16.67" length="0.38" shape="760.51,248.41 760.16,248.26"/>
        <lane id=":241755633_0_2" index="2" disallow="pedestrian bicycle tram rail_urban rail rail_electric rail_fast ship" speed="16.67" length="0.38" shape="759.33,251.39 758.90,251.20"/>
    </edge>
    <edge id=":241756120_0" function="internal">
        <lane id=":241756120_0_0" index="0" disallow="pedestrian bicycle tram rail_urban rail rail_electric rail_fast ship" speed="22.22" length="3.95" shape="775.02,199.43 773.79,199.58 772.94,199.60 772.09,199.57 770.85,199.55"/>
        <lane id=":241756120_0_1" index="1" disallow="pedestrian bicycle tram rail_urban rail rail_electric rail_fast ship" speed="22.22" length="3.95" shape="774.52,196.27 773.42,196.40 772.67,196.41 771.90,196.37 770.80,196.35"/>
    </edge>
    <edge id=":241782641_0" function="internal">
        <lane id=":241782641_0_0" index="0" disallow="pedestrian bicycle tram rail_urban rail rail_electric rail_fast ship" speed="19.44" length="7.18" shape="725.71,164.70 724.67,166.56 723.99,167.85 723.39,169.18 722.61,171.16"/>
    </edge>
    <edge id=":241782641_1" function="internal">
        <lane id=":241782641_1_0" index="0" disallow="pedestrian bicycle tram rail_urban rail rail_electric rail_fast ship" speed="9.10" length="7.39" shape="721.71,164.15 722.63,166.15 723.17,167.63 723.20,169.13 722.61,171.16"/>
    </edge>
    <edge id=":248481692_0" function="internal">
        <lane id=":248481692_0_0" index="0" disallow="pedestrian bicycle tram rail_urban rail rail_electric rail_fast ship" speed="22.22" length="34.62" shape="937.96,251.68 971.78,258.84"/>
        <lane id=":248481692_0_1" index="1" disallow="pedestrian bicycle tram rail_urban rail rail_electric rail_fast ship" speed="22.22" length="34.62" shape="937.36,254.82 971.29,262.00"/>
    </edge>
    <edge id=":248481692_2" function="internal">
        <lane id=":248481692_2_0" index="0" disallow="pedestrian bicycle tram rail_urban rail rail_electric rail_fast ship" speed="22.22" length="34.61" shape="936.84,258.75 942.94,259.01 952.23,259.77 962.44,260.83 971.29,262.00"/>
    </edge>
    <edge id=":271248120_0" function="internal">
        <lane id=":271248120_0_0" index="0" disallow="bicycle tram rail_urban rail rail_electric rail_fast ship" speed="24.45" length="24.40" shape="843.00,190.91 836.36,188.24 831.51,187.21 826.46,187.25 819.24,187.78"/>
        <lane id=":271248120_0_1" index="1" disallow="bicycle tram rail_urban rail rail_electric rail_fast ship" speed="24.88" length="25.27" shape="844.31,187.99 837.44,185.19 832.42,184.05 827.21,184.02 819.74,184.54"/>
        <lane id=":271248120_0_2" index="2" disallow="bicycle tram rail_urban rail rail_electric rail_fast ship" speed="24.98" length="25.47" shape="844.31,187.99 837.50,184.67 832.67,182.42 827.65,181.28 820.23,181.30"/>
    </edge>
    <edge id=":271248120_3" function="internal">
        <lane id=":271248120_3_0" index="0" disallow="bicycle tram rail_urban rail rail_electric rail_fast ship" speed="22.22" length="21.84" shape="845.63,185.07 839.30,182.80 834.57,181.81 830.17,180.61 824.83,177.74"/>
        <lane id=":271248120_3_1" index="1" disallow="bicycle tram rail_urban rail rail_electric rail_fast ship" speed="22.22" length="21.84" shape="845.63,185.07 839.69,182.44 835.56,180.52 831.71,178.38 826.62,175.08"/>
    </edge>
    <edge id=":292228838_0" function="internal">
        <lane id=":292228838_0_0" index="0" allow="pedestrian delivery bicycle" speed="5.30" length="5.43" shape="672.45,263.51 671.93,262.00 671.13,260.99 670.05,260.48 668.70,260.47"/>
    </edge>
    <edge id=":292228838_1" function="internal">
        <lane id=":292228838_1_0" index="0" allow="pedestrian delivery bicycle" speed="5.56" length="10.80" shape="672.45,263.51 672.24,260.50 673.07,258.26 674.95,256.80 677.88,256.10"/>
    </edge>
    <edge id=":292228838_2" function="internal">
        <lane id=":292228838_2_0" index="0" allow="pedestrian delivery bicycle" speed="3.65" length="4.67" shape="672.45,263.51 672.98,262.16 673.67,261.60 674.54,261.82 675.58,262.82"/>
    </edge>
    <edge id=":292228838_3" function="internal">
        <lane id=":292228838_3_0" index="0" allow="pedestrian delivery bicycle" speed="4.92" length="5.16" shape="678.17,259.29 676.77,259.62 675.87,260.32 675.47,261.39 675.58,262.82"/>
    </edge>
    <edge id=":292228838_4" function="internal">
        <lane id=":292228838_4_0" index="0" allow="pedestrian delivery bicycle" speed="5.56" length="9.54" shape="678.17,259.29 668.70,260.47"/>
    </edge>
    <edge id=":292228838_5" function="internal">