<?xml version="1.0" encoding="UTF-8"?>
<routes>
                <vType accel="1.0" decel="4.5" id="standard_car" length="5.0" minGap="2.5" maxSpeed="25" sigma="0.5" />

                <route id="W_N" edges="-E0 E5 E4 E3 E10"/>
                <route id="W_E" edges="-E0 E5 E4 E20"/>
                <route id="W_S" edges="-E0 E5 E30"/>
                <route id="N_W" edges="-E1 E6 E00"/>
                <route id="N_E" edges="-E1 E6 E5 E4 E20"/>
                <route id="N_S" edges="-E1 E6 E5 E30"/>
                <route id="E_W" edges="-E2 E3 E6 E00"/>
                <route id="E_N" edges="-E2 E3 E10"/>
                <route id="E_S" edges="-E2 E3 E6 E5 E30"/>
                <route id="S_W" edges="-E3 E4 E3 E6 E00"/>
                <route id="S_N" edges="-E3 E4 E3 E10"/>
                <route id="S_E" edges="-E3 E4 E20"/>
    <vehicle id="E_N_0" type="standard_car" route="E_N" depart="31.0" departLane="random" departSpeed="10" />
    <vehicle id="N_S_1" type="standard_car" route="N_S" depart="90.0" departLane="random" departSpeed="10" />
    <vehicle id="S_W_2" type="standard_car" route="S_W" depart="106.0" departLane="random" departSpeed="10" />
    <vehicle id="W_S_3" type="standard_car" route="W_S" depart="128.0" departLane="random" departSpeed="10" />
    <vehicle id="N_E_4" type="standard_car" route="N_E" depart="136.0" departLane="random" departSpeed="10" />
    <vehicle id="E_W_5" type="standard_car" route="E_W" depart="179.0" departLane="random" departSpeed="10" />
    <vehicle id="E_N_6" type="standard_car" route="E_N" depart="194.0" departLane="random" departSpeed="10" />
    <vehicle id="E_N_7" type="standard_car" route="E_N" depart="196.0" departLane="random" departSpeed="10" />
    <vehicle id="E_W_8" type="standard_car" route="E_W" depart="220.0" departLane="random" departSpeed="10" />
    <vehicle id="E_W_9" type="standard_car" route="E_W" depart="233.0" departLane="random" departSpeed="10" />
    <vehicle id="S_W_10" type="standard_car" route="S_W" depart="243.0" departLane="random" departSpeed="10" />
    <vehicle id="N_S_11" type="standard_car" route="N_S" depart="288.0" departLane="random" departSpeed="10" />
    <vehicle id="E_S_12" type="standard_car" route="E_S" depart="292.0" departLane="random" departSpeed="10" />
    <vehicle id="E_W_13" type="standard_car" route="E_W" depart="300.0" departLane="random" departSpeed="10" />
    <vehicle id="N_S_14" type="standard_car" route="N_S" depart="302.0" departLane="random" departSpeed="10" />
    <vehicle id="S_N_15" type="standard_car" route="S_N" depart="313.0" departLane="random" departSpeed="10" />
    <vehicle id="S_N_16" type="standard_car" route="S_N" depart="315.0" departLane="random" departSpeed="10" />
    <vehicle id="W_N_17" type="standard_car" route="W_N" depart="316.0" departLane="random" departSpeed="10" />
    <vehicle id="E_S_18" type="standard_car" route="E_S" depart="321.0" departLane="random" departSpeed="10" />
    <vehicle id="E_W_19" type="standard_car" route="E_W" depart="322.0" departLane="random" departSpeed="10" />
    <vehicle id="N_E_20" type="standard_car" route="N_E" depart="327.0" departLane="random" departSpeed="10" />
    <vehicle id="S_N_21" type="standard_car" route="S_N" depart="331.0" departLane="random" departSpeed="10" />
    <vehicle id="S_N_22" type="standard_car" route="S_N" depart="347.0" departLane="random" departSpeed="10" />
    <vehicle id="S_N_23" type="standard_car" route="S_N" depart="354.0" departLane="random" departSpeed="10" />
    <vehicle id="S_N_24" type="standard_car" route="S_N" depart="356.0" departLane="random" departSpeed="10" />
    <vehicle id="W_E_25" type="standard_car" route="W_E" depart="358.0" departLane="random" departSpeed="10" />
    <vehicle id="S_N_26" type="standard_car" route="S_N" depart="376.0" departLane="random" departSpeed="10" />
    <vehicle id="E_N_27" type="standard_car" route="E_N" depart="386.0" departLane="random" departSpeed="10" />
    <vehicle id="E_W_28" type="standard_car" route="E_W" depart="393.0" departLane="random" departSpeed="10" />
    <vehicle id="S_E_29" type="standard_car" route="S_E" depart="394.0" departLane="random" departSpeed="10" />
    <vehicle id="W_E_30" type="standard_car" route="W_E" depart="404.0" departLane="random" departSpeed="10" />
    <vehicle id="E_W_31" type="standard_car" route="E_W" depart="413.0" departLane="random" departSpeed="10" />
    <vehicle id="W_E_32" type="standard_car" route="W_E" depart="417.0" departLane="random" departSpeed="10" />
    <vehicle id="N_S_33" type="standard_car" route="N_S" depart="428.0" departLane="random" departSpeed="10" />
    <vehicle id="S_N_34" type="standard_car" route="S_N" depart="429.0" departLane="random" departSpeed="10" />
    <vehicle id="E_N_35" type="standard_car" route="E_N" depart="429.0" departLane="random" departSpeed="10" />
    <vehicle id="S_W_36" type="standard_car" route="S_W" depart="461.0" departLane="random" departSpeed="10" />
    <vehicle id="W_E_37" type="standard_car" route="W_E" depart="463.0" departLane="random" departSpeed="10" />
    <vehicle id="N_S_38" type="standard_car" route="N_S" depart="464.0" departLane="random" departSpeed="10" />
    <vehicle id="W_E_39" type="standard_car" route="W_E" depart="468.0" departLane="random" departSpeed="10" />
    <vehicle id="E_W_40" type="standard_car" route="E_W" depart="472.0" departLane="random" departSpeed="10" />
    <vehicle id="N_S_41" type="standard_car" route="N_S" depart="478.0" departLane="random" departSpeed="10" />
    <vehicle id="N_S_42" type="standard_car" route="N_S" depart="478.0" departLane="random" departSpeed="10" />
    <vehicle id="N_E_43" type="standard_car" route="N_E" depart="478.0" departLane="random" departSpeed="10" />
    <vehicle id="N_S_44" type="standard_car" route="N_S" depart="481.0" departLane="random" departSpeed="10" />
    <vehicle id="N_S_45" type="standard_car" route="N_S" depart="485.0" departLane="random" departSpeed="10" />
    <vehicle id="E_W_46" type="standard_car" route="E_W" depart="486.0" departLane="random" departSpeed="10" />
    <vehicle id="E_W_47" type="standard_car" route="E_W" depart="486.0" departLane="random" departSpeed="10" />
    <vehicle id="E_N_48" type="standard_car" route="E_N" depart="489.0" departLane="random" departSpeed="10" />
    <vehicle id="W_E_49" type="standard_car" route="W_E" depart="489.0" departLane="random" departSpeed="10" />
    <vehicle id="W_E_50" type="standard_car" route="W_E" depart="493.0" departLane="random" departSpeed="10" />
    <vehicle id="N_E_51" type="standard_car" route="N_E" depart="507.0" departLane="random" departSpeed="10" />
    <vehicle id="E_W_52" type="standard_car" route="E_W" depart="507.0" departLane="random" departSpeed="10" />
    <vehicle id="S_N_53" type="standard_car" route="S_N" depart="510.0" departLane="random" departSpeed="10" />
    <vehicle id="E_S_54" type="standard_car" route="E_S" depart="512.0" departLane="random" departSpeed="10" />
    <vehicle id="N_W_55" type="standard_car" route="N_W" depart="516.0" departLane="random" departSpeed="10" />
    <vehicle id="E_S_56" type="standard_car" route="E_S" depart="523.0" departLane="random" departSpeed="10" />
    <vehicle id="W_E_57" type="standard_car" route="W_E" depart="523.0" departLane="random" departSpeed="10" />
    <vehicle id="N_S_58" type="standard_car" route="N_S" depart="526.0" departLane="random" departSpeed="10" />
    <vehicle id="W_E_59" type="standard_car" route="W_E" depart="530.0" departLane="random" departSpeed="10" />
    <vehicle id="N_S_60" type="standard_car" route="N_S" depart="538.0" departLane="random" departSpeed="10" />
    <vehicle id="E_N_61" type="standard_car" route="E_N" depart="539.0" departLane="random" departSpeed="10" />
    <vehicle id="E_W_62" type="standard_car" route="E_W" depart="541.0" departLane="random" departSpeed="10" />
    <vehicle id="S_N_63" type="standard_car" route="S_N" depart="541.0" departLane="random" departSpeed="10" />
    <vehicle id="W_E_64" type="standard_car" route="W_E" depart="542.0" departLane="random" departSpeed="10" />
    <vehicle id="S_N_65" type="standard_car" route="S_N" depart="543.0" departLane="random" departSpeed="10" />
    <vehicle id="W_E_66" type="standard_car" route="W_E" depart="550.0" departLane="random" departSpeed="10" />
    <vehicle id="S_W_67" type="standard_car" route="S_W" depart="558.0" departLane="random" departSpeed="10" />
    <vehicle id="W_E_68" type="standard_car" route="W_E" depart="559.0" departLane="random" departSpeed="10" />
    <vehicle id="S_N_69" type="standard_car" route="S_N" depart="565.0" departLane="random" departSpeed="10" />
    <vehicle id="N_S_70" type="standard_car" route="N_S" depart="566.0" departLane="random" departSpeed="10" />
    <vehicle id="E_W_71" type="standard_car" route="E_W" depart="572.0" departLane="random" departSpeed="10" />
    <vehicle id="S_N_72" type="standard_car" route="S_N" depart="576.0" departLane="random" departSpeed="10" />
    <vehicle id="N_W_73" type="standard_car" route="N_W" depart="583.0" departLane="random" departSpeed="10" />
    <vehicle id="S_N_74" type="standard_car" route="S_N" depart="592.0" departLane="random" departSpeed="10" />
    <vehicle id="S_N_75" type="standard_car" route="S_N" depart="596.0" departLane="random" departSpeed="10" />
    <vehicle id="S_E_76" type="standard_car" route="S_E" depart="603.0" departLane="random" departSpeed="10" />
    <vehicle id="S_E_77" type="standard_car" route="S_E" depart="608.0" departLane="random" departSpeed="10" />
    <vehicle id="N_S_78" type="standard_car" route="N_S" depart="609.0" departLane="random" departSpeed="10" />
    <vehicle id="S_W_79" type="standard_car" route="S_W" depart="610.0" departLane="random" departSpeed="10" />
    <vehicle id="W_E_80" type="standard_car" route="W_E" depart="611.0" departLane="random" departSpeed="10" />
    <vehicle id="E_S_81" type="standard_car" route="E_S" depart="611.0" departLane="random" departSpeed="10" />
    <vehicle id="N_S_82" type="standard_car" route="N_S" depart="615.0" departLane="random" departSpeed="10" />
    <vehicle id="E_W_83" type="standard_car" route="E_W" depart="618.0" departLane="random" departSpeed="10" />
    <vehicle id="E_W_84" type="standard_car" route="E_W" depart="626.0" departLane="random" departSpeed="10" />
    <vehicle id="N_W_85" type="standard_car" route="N_W" depart="628.0" departLane="random" departSpeed="10" />
    <vehicle id="N_S_86" type="standard_car" route="N_S" depart="635.0" departLane="random" departSpeed="10" />
    <vehicle id="N_S_87" type="standard_car" route="N_S" depart="638.0" departLane="random" departSpeed="10" />
    <vehicle id="W_E_88" type="standard_car" route="W_E" depart="640.0" departLane="random" departSpeed="10" />
    <vehicle id="E_N_89" type="standard_car" route="E_N" depart="647.0" departLane="random" departSpeed="10" />
    <vehicle id="S_W_90" type="standard_car" route="S_W" depart="650.0" departLane="random" departSpeed="10" />
    <vehicle id="E_W_91" type="standard_car" route="E_W" depart="652.0" departLane="random" departSpeed="10" />
    <vehicle id="S_N_92" type="standard_car" route="S_N" depart="657.0" departLane="random" departSpeed="10" />
    <vehicle id="E_W_93" type="standard_car" route="E_W" depart="665.0" departLane="random" departSpeed="10" />
    <vehicle id="N_S_94" type="standard_car" route="N_S" depart="667.0" departLane="random" departSpeed="10" />
    <vehicle id="S_N_95" type="standard_car" route="S_N" depart="670.0" departLane="random" departSpeed="10" />
    <vehicle id="N_S_96" type="standard_car" route="N_S" depart="673.0" departLane="random" departSpeed="10" />
    <vehicle id="S_E_97" type="standard_car" route="S_E" depart="678.0" departLane="random" departSpeed="10" />
    <vehicle id="N_E_98" type="standard_car" route="N_E" depart="680.0" departLane="random" departSpeed="10" />
    <vehicle id="E_W_99" type="standard_car" route="E_W" depart="682.0" departLane="random" departSpeed="10" />
    <vehicle id="S_N_100" type="standard_car" route="S_N" depart="685.0" departLane="random" departSpeed="10" />
    <vehicle id="E_W_101" type="standard_car" route="E_W" depart="686.0" departLane="random" departSpeed="10" />
    <vehicle id="W_E_102" type="standard_car" route="W_E" depart="687.0" departLane="random" departSpeed="10" />
    <vehicle id="N_W_103" type="standard_car" route="N_W" depart="691.0" departLane="random" departSpeed="10" />
    <vehicle id="E_W_104" type="standard_car" route="E_W" depart="693.0" departLane="random" departSpeed="10" />
    <vehicle id="N_S_105" type="standard_car" route="N_S" depart="695.0" departLane="random" departSpeed="10" />
    <vehicle id="N_E_106" type="standard_car" route="N_E" depart="696.0" departLane="random" departSpeed="10" />
    <vehicle id="W_S_107" type="standard_car" route="W_S" depart="697.0" departLane="random" departSpeed="10" />
    <vehicle id="W_E_108" type="standard_car" route="W_E" depart="704.0" departLane="random" departSpeed="10" />
    <vehicle id="E_W_109" type="standard_car" route="E_W" depart="705.0" departLane="random" departSpeed="10" />
    <vehicle id="E_N_110" type="standard_car" route="E_N" depart="715.0" departLane="random" departSpeed="10" />
    <vehicle id="E_N_111" type="standard_car" route="E_N" depart="719.0" departLane="random" departSpeed="10" />
    <vehicle id="N_S_112" type="standard_car" route="N_S" depart="721.0" departLane="random" departSpeed="10" />
    <vehicle id="W_E_113" type="standard_car" route="W_E" depart="726.0" departLane="random" departSpeed="10" />
    <vehicle id="W_E_114" type="standard_car" route="W_E" depart="730.0" departLane="random" departSpeed="10" />
    <vehicle id="W_E_115" type="standard_car" route="W_E" depart="731.0" departLane="random" departSpeed="10" />
    <vehicle id="S_W_116" type="standard_car" route="S_W" depart="732.0" departLane="random" departSpeed="10" />
    <vehicle id="S_N_117" type="standard_car" route="S_N" depart="733.0" departLane="random" departSpeed="10" />
    <vehicle id="E_W_118" type="standard_car" route="E_W" depart="735.0" departLane="random" departSpeed="10" />
    <vehicle id="N_S_119" type="standard_car" route="N_S" depart="738.0" departLane="random" departSpeed="10" />
    <vehicle id="N_E_120" type="standard_car" route="N_E" depart="749.0" departLane="random" departSpeed="10" />
    <vehicle id="E_W_121" type="standard_car" route="E_W" depart="753.0" departLane="random" departSpeed="10" />
    <vehicle id="W_E_122" type="standard_car" route="W_E" depart="757.0" departLane="random" departSpeed="10" />
    <vehicle id="W_N_123" type="standard_car" route="W_N" depart="757.0" departLane="random" departSpeed="10" />
    <vehicle id="N_S_124" type="standard_car" route="N_S" depart="770.0" departLane="random" departSpeed="10" />
    <vehicle id="E_W_125" type="standard_car" route="E_W" depart="773.0" departLane="random" departSpeed="10" />
    <vehicle id="W_N_126" type="standard_car" route="W_N" depart="776.0" departLane="random" departSpeed="10" />
    <vehicle id="N_S_127" type="standard_car" route="N_S" depart="776.0" departLane="random" departSpeed="10" />
    <vehicle id="N_S_128" type="standard_car" route="N_S" depart="779.0" departLane="random" departSpeed="10" />
    <vehicle id="S_N_129" type="standard_car" route="S_N" depart="780.0" departLane="random" departSpeed="10" />
    <vehicle id="S_N_130" type="standard_car" route="S_N" depart="783.0" departLane="random" departSpeed="10" />
    <vehicle id="S_N_131" type="standard_car" route="S_N" depart="785.0" departLane="random" departSpeed="10" />
    <vehicle id="N_S_132" type="standard_car" route="N_S" depart="786.0" departLane="random" departSpeed="10" />
    <vehicle id="E_S_133" type="standard_car" route="E_S" depart="787.0" departLane="random" departSpeed="10" />
    <vehicle id="S_N_134" type="standard_car" route="S_N" depart="787.0" departLane="random" departSpeed="10" />
    <vehicle id="E_W_135" type="standard_car" route="E_W" depart="791.0" departLane="random" departSpeed="10" />
    <vehicle id="W_N_136" type="standard_car" route="W_N" depart="792.0" departLane="random" departSpeed="10" />
    <vehicle id="S_N_137" type="standard_car" route="S_N" depart="795.0" departLane="random" departSpeed="10" />
    <vehicle id="N_S_138" type="standard_car" route="N_S" depart="800.0" departLane="random" departSpeed="10" />
    <vehicle id="W_E_139" type="standard_car" route="W_E" depart="803.0" departLane="random" departSpeed="10" />
    <vehicle id="S_N_140" type="standard_car" route="S_N" depart="806.0" departLane="random" departSpeed="10" />
    <vehicle id="W_E_141" type="standard_car" route="W_E" depart="806.0" departLane="random" departSpeed="10" />
    <vehicle id="S_N_142" type="standard_car" route="S_N" depart="809.0" departLane="random" departSpeed="10" />
    <vehicle id="W_E_143" type="standard_car" route="W_E" depart="813.0" departLane="random" departSpeed="10" />
    <vehicle id="E_W_144" type="standard_car" route="E_W" depart="815.0" departLane="random" departSpeed="10" />
    <vehicle id="S_N_145" type="standard_car" route="S_N" depart="816.0" departLane="random" departSpeed="10" />
    <vehicle id="E_N_146" type="standard_car" route="E_N" depart="818.0" departLane="random" departSpeed="10" />
    <vehicle id="W_E_147" type="standard_car" route="W_E" depart="819.0" departLane="random" departSpeed="10" />
    <vehicle id="E_W_148" type="standard_car" route="E_W" depart="826.0" departLane="random" departSpeed="10" />
    <vehicle id="S_E_149" type="standard_car" route="S_E" depart="827.0" departLane="random" departSpeed="10" />
    <vehicle id="W_N_150" type="standard_car" route="W_N" depart="831.0" departLane="random" departSpeed="10" />
    <vehicle id="W_E_151" type="standard_car" route="W_E" depart="839.0" departLane="random" departSpeed="10" />
    <vehicle id="N_W_152" type="standard_car" route="N_W" depart="845.0" departLane="random" departSpeed="10" />
    <vehicle id="S_N_153" type="standard_car" route="S_N" depart="846.0" departLane="random" departSpeed="10" />
    <vehicle id="E_W_154" type="standard_car" route="E_W" depart="848.0" departLane="random" departSpeed="10" />
    <vehicle id="N_S_155" type="standard_car" route="N_S" depart="850.0" departLane="random" departSpeed="10" />
    <vehicle id="S_N_156" type="standard_car" route="S_N" depart="852.0" departLane="random" departSpeed="10" />
    <vehicle id="N_S_157" type="standard_car" route="N_S" depart="852.0" departLane="random" departSpeed="10" />
    <vehicle id="E_N_158" type="standard_car" route="E_N" depart="853.0" departLane="random" departSpeed="10" />
    <vehicle id="E_N_159" type="standard_car" route="E_N" depart="855.0" departLane="random" departSpeed="10" />
    <vehicle id="N_S_160" type="standard_car" route="N_S" depart="857.0" departLane="random" departSpeed="10" />
    <vehicle id="N_W_161" type="standard_car" route="N_W" depart="862.0" departLane="random" departSpeed="10" />
    <vehicle id="W_E_162" type="standard_car" route="W_E" depart="865.0" departLane="random" departSpeed="10" />
    <vehicle id="E_W_163" type="standard_car" route="E_W" depart="869.0" departLane="random" departSpeed="10" />
    <vehicle id="N_S_164" type="standard_car" route="N_S" depart="870.0" departLane="random" departSpeed="10" />
    <vehicle id="E_W_165" type="standard_car" route="E_W" depart="876.0" departLane="random" departSpeed="10" />
    <vehicle id="S_N_166" type="standard_car" route="S_N" depart="877.0" departLane="random" departSpeed="10" />
    <vehicle id="N_S_167" type="standard_car" route="N_S" depart="879.0" departLane="random" departSpeed="10" />
    <vehicle id="N_S_168" type="standard_car" route="N_S" depart="880.0" departLane="random" departSpeed="10" />
    <vehicle id="W_S_169" type="standard_car" route="W_S" depart="882.0" departLane="random" departSpeed="10" />
    <vehicle id="S_E_170" type="standard_car" route="S_E" depart="884.0" departLane="random" departSpeed="10" />
    <vehicle id="E_W_171" type="standard_car" route="E_W" depart="886.0" departLane="random" departSpeed="10" />
    <vehicle id="S_N_172" type="standard_car" route="S_N" depart="886.0" departLane="random" departSpeed="10" />
    <vehicle id="E_W_173" type="standard_car" route="E_W" depart="886.0" departLane="random" departSpeed="10" />
    <vehicle id="W_E_174" type="standard_car" route="W_E" depart="887.0" departLane="random" departSpeed="10" />
    <vehicle id="W_E_175" type="standard_car" route="W_E" depart="890.0" departLane="random" departSpeed="10" />
    <vehicle id="S_N_176" type="standard_car" route="S_N" depart="892.0" departLane="random" departSpeed="10" />
    <vehicle id="S_N_177" type="standard_car" route="S_N" depart="894.0" departLane="random" departSpeed="10" />
    <vehicle id="E_W_178" type="standard_car" route="E_W" depart="896.0" departLane="random" departSpeed="10" />
    <vehicle id="W_N_179" type="standard_car" route="W_N" depart="904.0" departLane="random" departSpeed="10" />
    <vehicle id="W_E_180" type="standard_car" route="W_E" depart="909.0" departLane="random" departSpeed="10" />
    <vehicle id="N_E_181" type="standard_car" route="N_E" depart="909.0" departLane="random" departSpeed="10" />
    <vehicle id="E_N_182" type="standard_car" route="E_N" depart="911.0" departLane="random" departSpeed="10" />
    <vehicle id="W_E_183" type="standard_car" route="W_E" depart="912.0" departLane="random" departSpeed="10" />
    <vehicle id="S_W_184" type="standard_car" route="S_W" depart="918.0" departLane="random" departSpeed="10" />
    <vehicle id="E_W_185" type="standard_car" route="E_W" depart="922.0" departLane="random" departSpeed="10" />
    <vehicle id="E_W_186" type="standard_car" route="E_W" depart="923.0" departLane="random" departSpeed="10" />
    <vehicle id="S_N_187" type="standard_car" route="S_N" depart="923.0" departLane="random" departSpeed="10" />
    <vehicle id="W_E_188" type="standard_car" route="W_E" depart="924.0" departLane="random" departSpeed="10" />
    <vehicle id="E_W_189" type="standard_car" route="E_W" depart="925.0" departLane="random" departSpeed="10" />
    <vehicle id="E_S_190" type="standard_car" route="E_S" depart="933.0" departLane="random" departSpeed="10" />
    <vehicle id="N_S_191" type="standard_car" route="N_S" depart="938.0" departLane="random" departSpeed="10" />
    <vehicle id="W_E_192" type="standard_car" route="W_E" depart="938.0" departLane="random" departSpeed="10" />
    <vehicle id="N_S_193" type="standard_car" route="N_S" depart="939.0" departLane="random" departSpeed="10" />
    <vehicle id="S_N_194" type="standard_car" route="S_N" depart="940.0" departLane="random" departSpeed="10" />
    <vehicle id="E_W_195" type="standard_car" route="E_W" depart="945.0" departLane="random" departSpeed="10" />
    <vehicle id="S_E_196" type="standard_car" route="S_E" depart="948.0" departLane="random" departSpeed="10" />
    <vehicle id="S_W_197" type="standard_car" route="S_W" depart="951.0" departLane="random" departSpeed="10" />
    <vehicle id="N_W_198" type="standard_car" route="N_W" depart="952.0" departLane="random" departSpeed="10" />
    <vehicle id="E_W_199" type="standard_car" route="E_W" depart="958.0" departLane="random" departSpeed="10" />
    <vehicle id="W_E_200" type="standard_car" route="W_E" depart="963.0" departLane="random" departSpeed="10" />
    <vehicle id="N_W_201" type="standard_car" route="N_W" depart="966.0" departLane="random" departSpeed="10" />
    <vehicle id="W_E_202" type="standard_car" route="W_E" depart="966.0" departLane="random" departSpeed="10" />
    <vehicle id="N_S_203" type="standard_car" route="N_S" depart="967.0" departLane="random" departSpeed="10" />
    <vehicle id="S_N_204" type="standard_car" route="S_N" depart="968.0" departLane="random" departSpeed="10" />
    <vehicle id="N_S_205" type="standard_car" route="N_S" depart="969.0" departLane="random" departSpeed="10" />
    <vehicle id="S_N_206" type="standard_car" route="S_N" depart="974.0" departLane="random" departSpeed="10" />
    <vehicle id="E_W_207" type="standard_car" route="E_W" depart="976.0" departLane="random" departSpeed="10" />
    <vehicle id="W_E_208" type="standard_car" route="W_E" depart="977.0" departLane="random" departSpeed="10" />
    <vehicle id="S_N_209" type="standard_car" route="S_N" depart="977.0" departLane="random" departSpeed="10" />
    <vehicle id="E_N_210" type="standard_car" route="E_N" depart="978.0" departLane="random" departSpeed="10" />
    <vehicle id="S_N_211" type="standard_car" route="S_N" depart="982.0" departLane="random" departSpeed="10" />
    <vehicle id="W_E_212" type="standard_car" route="W_E" depart="987.0" departLane="random" departSpeed="10" />
    <vehicle id="E_N_213" type="standard_car" route="E_N" depart="987.0" departLane="random" departSpeed="10" />
    <vehicle id="N_S_214" type="standard_car" route="N_S" depart="995.0" departLane="random" departSpeed="10" />
    <vehicle id="W_E_215" type="standard_car" route="W_E" depart="996.0" departLane="random" departSpeed="10" />
    <vehicle id="W_S_216" type="standard_car" route="W_S" depart="997.0" departLane="random" departSpeed="10" />
    <vehicle id="E_W_217" type="standard_car" route="E_W" depart="1001.0" departLane="random" departSpeed="10" />
    <vehicle id="W_E_218" type="standard_car" route="W_E" depart="1006.0" departLane="random" departSpeed="10" />
    <vehicle id="N_S_219" type="standard_car" route="N_S" depart="1009.0" departLane="random" departSpeed="10" />
    <vehicle id="N_S_220" type="standard_car" route="N_S" depart="1010.0" departLane="random" departSpeed="10" />
    <vehicle id="N_S_221" type="standard_car" route="N_S" depart="1022.0" departLane="random" departSpeed="10" />
    <vehicle id="S_N_222" type="standard_car" route="S_N" depart="1026.0" departLane="random" departSpeed="10" />
    <vehicle id="N_E_223" type="standard_car" route="N_E" depart="1038.0" departLane="random" departSpeed="10" />
    <vehicle id="S_E_224" type="standard_car" route="S_E" depart="1039.0" departLane="random" departSpeed="10" />
    <vehicle id="N_S_225" type="standard_car" route="N_S" depart="1039.0" departLane="random" departSpeed="10" />
    <vehicle id="N_S_226" type="standard_car" route="N_S" depart="1043.0" departLane="random" departSpeed="10" />
    <vehicle id="N_S_227" type="standard_car" route="N_S" depart="1044.0" departLane="random" departSpeed="10" />
    <vehicle id="S_N_228" type="standard_car" route="S_N" depart="1045.0" departLane="random" departSpeed="10" />
    <vehicle id="W_S_229" type="standard_car" route="W_S" depart="1046.0" departLane="random" departSpeed="10" />
    <vehicle id="S_N_230" type="standard_car" route="S_N" depart="1048.0" departLane="random" departSpeed="10" />
    <vehicle id="W_E_231" type="standard_car" route="W_E" depart="1049.0" departLane="random" departSpeed="10" />
    <vehicle id="N_S_232" type="standard_car" route="N_S" depart="1050.0" departLane="random" departSpeed="10" />
    <vehicle id="N_E_233" type="standard_car" route="N_E" depart="1055.0" departLane="random" departSpeed="10" />
    <vehicle id="W_E_234" type="standard_car" route="W_E" depart="1056.0" departLane="random" departSpeed="10" />
    <vehicle id="S_N_235" type="standard_car" route="S_N" depart="1065.0" departLane="random" departSpeed="10" />
    <vehicle id="E_W_236" type="standard_car" route="E_W" depart="1067.0" departLane="random" departSpeed="10" />
    <vehicle id="W_S_237" type="standard_car" route="W_S" depart="1080.0" departLane="random" departSpeed="10" />
    <vehicle id="N_S_238" type="standard_car" route="N_S" depart="1089.0" departLane="random" departSpeed="10" />
    <vehicle id="N_S_239" type="standard_car" route="N_S" depart="1092.0" departLane="random" departSpeed="10" />
    <vehicle id="E_W_240" type="standard_car" route="E_W" depart="1094.0" departLane="random" departSpeed="10" />
    <vehicle id="E_W_241" type="standard_car" route="E_W" depart="1099.0" departLane="random" departSpeed="10" />
    <vehicle id="N_S_242" type="standard_car" route="N_S" depart="1105.0" departLane="random" departSpeed="10" />
    <vehicle id="N_S_243" type="standard_car" route="N_S" depart="1106.0" departLane="random" departSpeed="10" />
    <vehicle id="S_N_244" type="standard_car" route="S_N" depart="1108.0" departLane="random" departSpeed="10" />
    <vehicle id="W_S_245" type="standard_car" route="W_S" depart="1110.0" departLane="random" departSpeed="10" />
    <vehicle id="W_N_246" type="standard_car" route="W_N" depart="1113.0" departLane="random" departSpeed="10" />
    <vehicle id="S_N_247" type="standard_car" route="S_N" depart="1114.0" departLane="random" departSpeed="10" />
    <vehicle id="E_W_248" type="standard_car" route="E_W" depart="1117.0" departLane="random" departSpeed="10" />
    <vehicle id="N_E_249" type="standard_car" route="N_E" depart="1119.0" departLane="random" departSpeed="10" />
    <vehicle id="N_S_250" type="standard_car" route="N_S" depart="1123.0" departLane="random" departSpeed="10" />
    <vehicle id="E_W_251" type="standard_car" route="E_W" depart="1127.0" departLane="random" departSpeed="10" />
    <vehicle id="W_E_252" type="standard_car" route="W_E" depart="1129.0" departLane="random" departSpeed="10" />
    <vehicle id="S_E_253" type="standard_car" route="S_E" depart="1134.0" departLane="random" departSpeed="10" />
    <vehicle id="E_S_254" type="standard_car" route="E_S" depart="1136.0" departLane="random" departSpeed="10" />
    <vehicle id="S_N_255" type="standard_car" route="S_N" depart="1137.0" departLane="random" departSpeed="10" />
    <vehicle id="E_S_256" type="standard_car" route="E_S" depart="1141.0" departLane="random" departSpeed="10" />
    <vehicle id="S_N_257" type="standard_car" route="S_N" depart="1147.0" departLane="random" departSpeed="10" />