<?xml version="1.0" encoding="UTF-8"?>

<net version="1.9" junctionCornerDetail="5" limitTurnSpeed="5.50" xmlns:xsi="http://www.w3.org/2001/XMLSchema-instance" xsi:noNamespaceSchemaLocation="http://sumo.dlr.de/xsd/net_file.xsd">

    <location netOffset="0.00,0.00" convBoundary="-29.33,-19.63,114.45,110.93" origBoundary="10000000000.00,10000000000.00,-10000000000.00,-10000000000.00" projParameter="!"/>

    <edge id=":J10_0" function="internal">
        <lane id=":J10_0_0" index="0" speed="6.68" length="6.72" shape="-0.77,47.57 -1.79,46.15 -3.07,45.19 -4.59,44.70 -6.37,44.67"/>
    </edge>
    <edge id=":J10_1" function="internal">
        <lane id=":J10_1_0" index="0" speed="8.71" length="9.10" shape="-0.77,47.57 -1.92,44.80 -2.28,42.16 -1.86,39.65 -0.65,37.27"/>
        <lane id=":J10_1_1" index="1" speed="7.25" length="9.10" shape="2.04,46.04 1.24,44.13 0.96,42.33 1.21,40.65 1.98,39.09"/>
    </edge>
    <edge id=":J10_3" function="internal">
        <lane id=":J10_3_0" index="0" speed="8.61" length="7.61" shape="-6.71,41.49 -5.06,41.09 -3.50,40.25 -2.03,38.98 -0.65,37.27"/>
    </edge>
    <edge id=":J11_0" function="internal">
        <lane id=":J11_0_0" index="0" speed="6.67" length="6.48" shape="33.84,79.74 33.62,78.05 32.99,76.64 31.95,75.50 30.49,74.63"/>
    </edge>
    <edge id=":J11_1" function="internal">
        <lane id=":J11_1_0" index="0" speed="6.70" length="6.48" shape="40.31,74.57 38.87,75.46 37.85,76.62 37.24,78.04 37.04,79.72"/>
    </edge>
    <edge id=":J11_2" function="internal">
        <lane id=":J11_2_0" index="0" speed="9.98" length="8.77" shape="40.31,74.57 37.87,75.42 35.42,75.71 32.96,75.45 30.49,74.63"/>
        <lane id=":J11_2_1" index="1" speed="8.61" length="8.77" shape="38.97,71.66 37.19,72.28 35.40,72.49 33.59,72.30 31.78,71.71"/>
    </edge>
    <edge id=":J8_0" function="internal">
        <lane id=":J8_0_0" index="0" speed="6.67" length="7.48" shape="63.06,44.39 61.12,44.83 59.61,45.75 58.55,47.15 57.93,49.02"/>
    </edge>
    <edge id=":J8_1" function="internal">
        <lane id=":J8_1_0" index="0" speed="6.58" length="7.45" shape="56.96,37.55 57.88,39.30 59.15,40.50 60.77,41.13 62.75,41.20"/>
    </edge>
    <edge id=":J8_2" function="internal">
        <lane id=":J8_2_0" index="0" speed="13.89" length="10.89" shape="56.96,37.55 58.09,40.83 58.59,43.19 58.51,45.60 57.93,49.02"/>
        <lane id=":J8_2_1" index="1" speed="13.89" length="10.89" shape="53.95,38.64 54.92,41.44 55.34,43.45 55.28,45.51 54.78,48.42"/>
    </edge>
    <edge id=":J9_0" function="internal">
        <lane id=":J9_0_0" index="0" speed="8.63" length="8.68" shape="33.70,11.51 34.09,13.64 34.96,15.53 36.30,17.19 38.12,18.60"/>
    </edge>
    <edge id=":J9_1" function="internal">
        <lane id=":J9_1_0" index="0" speed="6.55" length="7.92" shape="26.27,17.54 28.24,16.75 29.61,15.52 30.36,13.85 30.51,11.73"/>
    </edge>
    <edge id=":J9_2" function="internal">
        <lane id=":J9_2_0" index="0" speed="11.32" length="10.93" shape="26.27,17.54 29.74,16.93 32.87,16.90 35.67,17.46 38.12,18.60"/>
        <lane id=":J9_2_1" index="1" speed="10.10" length="10.93" shape="27.04,20.65 29.86,20.13 32.37,20.07 34.55,20.46 36.42,21.31"/>
    </edge>

    <edge id="-E00" from="J11" to="J0" priority="-1">
        <lane id="-E00_0" index="0" speed="13.89" length="31.20" shape="37.04,79.72 37.18,110.92"/>
    </edge>
    <edge id="-E1" from="J2" to="J9" priority="-1">
        <lane id="-E1_0" index="0" speed="13.89" length="31.32" shape="31.59,-19.74 33.70,11.51"/>
    </edge>
    <edge id="-E20" from="J10" to="J3" priority="-1">
        <lane id="-E20_0" index="0" speed="13.89" length="22.92" shape="-6.37,44.67 -29.16,47.08"/>
    </edge>
    <edge id="-E3" from="J4" to="J8" priority="-1">
        <lane id="-E3_0" index="0" speed="13.89" length="51.78" shape="114.60,39.47 63.06,44.39"/>
    </edge>
    <edge id="E0" from="J0" to="J11" priority="-1">
        <lane id="E0_0" index="0" speed="13.89" length="31.20" shape="33.98,110.94 33.84,79.74"/>
    </edge>
    <edge id="E10" from="J9" to="J2" priority="-1">
        <lane id="E10_0" index="0" speed="13.89" length="31.32" shape="30.51,11.73 28.39,-19.52"/>
    </edge>
    <edge id="E2" from="J3" to="J10" priority="-1">
        <lane id="E2_0" index="0" speed="13.89" length="22.92" shape="-29.50,43.90 -6.71,41.49"/>
    </edge>
    <edge id="E30" from="J8" to="J4" priority="-1">
        <lane id="E30_0" index="0" speed="13.89" length="51.78" shape="62.75,41.20 114.30,36.29"/>
    </edge>
    <edge id="E6" from="J9" to="J8" priority="-1" shape="32.73,20.88 40.77,25.93 45.08,30.46 51.09,35.46 54.07,43.64">
        <lane id="E6_0" index="0" speed="13.89" length="26.34" shape="38.12,18.60 43.83,22.19 48.36,26.95 55.16,32.60 56.96,37.55"/>
        <lane id="E6_1" index="1" speed="13.89" length="26.34" shape="36.42,21.31 41.79,24.68 46.17,29.29 52.45,34.51 53.95,38.64"/>
    </edge>
    <edge id="E7" from="J10" to="J9" priority="-1" shape="1.78,42.20 7.80,33.46 13.13,27.06 21.39,23.70 32.73,20.88">
        <lane id="E7_0" index="0" speed="13.89" length="33.75" shape="-0.65,37.27 3.97,30.56 10.21,23.07 19.90,19.12 26.27,17.54"/>
        <lane id="E7_1" index="1" speed="13.89" length="33.75" shape="1.98,39.09 6.52,32.49 12.16,25.73 20.89,22.17 27.04,20.65"/>
    </edge>
    <edge id="E8" from="J11" to="J10" priority="-1" shape="35.40,71.55 24.99,66.97 13.72,61.24 8.00,53.70 1.78,42.20">
        <lane id="E8_0" index="0" speed="13.89" length="41.94" shape="30.49,74.63 22.93,71.31 10.56,65.02 3.95,56.31 -0.77,47.57"/>
        <lane id="E8_1" index="1" speed="13.89" length="41.94" shape="31.78,71.71 24.30,68.42 12.67,62.50 6.65,54.57 2.04,46.04"/>
    </edge>
    <edge id="E9" from="J8" to="J11" priority="-1" shape="54.07,43.64 52.50,51.84 50.66,57.66 45.22,67.02 35.40,71.55">
        <lane id="E9_0" index="0" speed="13.89" length="31.44" shape="57.93,49.02 57.16,53.02 55.08,59.61 48.61,70.74 40.31,74.57"/>
        <lane id="E9_1" index="1" speed="13.89" length="31.44" shape="54.78,48.42 54.05,52.23 52.13,58.31 46.35,68.26 38.97,71.66"/>
    </edge>

    <junction id="J0" type="dead_end" x="35.58" y="110.93" incLanes="-E00_0" intLanes="" shape="35.58,110.93 38.78,110.92 35.58,110.93"/>
    <junction id="J10" type="priority" x="1.78" y="42.20" incLanes="E8_0 E8_1 E2_0" intLanes=":J10_0_0 :J10_1_0 :J10_1_1 :J10_3_0" shape="-2.18,48.33 3.45,45.28 2.69,43.33 2.58,42.42 2.64,41.56 2.88,40.75 3.30,39.99 -1.97,36.36 -3.51,38.20 -4.32,38.87 -5.15,39.38 -6.00,39.72 -6.88,39.90 -6.20,46.26 -4.54,46.36 -3.82,46.63 -3.20,47.05 -2.65,47.62">
        <request index="0" response="0000" foes="0000" cont="0"/>
        <request index="1" response="0000" foes="1000" cont="0"/>
        <request index="2" response="0000" foes="0000" cont="0"/>
        <request index="3" response="0010" foes="0010" cont="0"/>
    </junction>
    <junction id="J11" type="priority" x="35.40" y="71.55" incLanes="E0_0 E9_0 E9_1" intLanes=":J11_0_0 :J11_1_0 :J11_2_0 :J11_2_1" shape="32.24,79.74 38.64,79.71 38.89,78.15 39.22,77.49 39.67,76.92 40.26,76.43 40.98,76.02 38.30,70.21 36.36,70.81 35.38,70.89 34.40,70.82 33.42,70.60 32.43,70.24 29.85,76.10 31.17,76.97 31.63,77.53 31.97,78.18 32.17,78.92">
        <request index="0" response="0100" foes="0100" cont="0"/>
        <request index="1" response="0000" foes="0000" cont="0"/>
        <request index="2" response="0000" foes="0001" cont="0"/>
        <request index="3" response="0000" foes="0000" cont="0"/>
    </junction>
    <junction id="J2" type="dead_end" x="29.99" y="-19.63" incLanes="E10_0" intLanes="" shape="29.99,-19.63 26.80,-19.41 29.99,-19.63"/>
    <junction id="J3" type="dead_end" x="-29.33" y="45.49" incLanes="-E20_0" intLanes="" shape="-29.33,45.49 -28.99,48.67 -29.33,45.49"/>
    <junction id="J4" type="dead_end" x="114.45" y="37.88" incLanes="E30_0" intLanes="" shape="114.45,37.88 114.15,34.69 114.45,37.88"/>
    <junction id="J8" type="priority" x="54.07" y="43.64" incLanes="-E3_0 E6_0 E6_1" intLanes=":J8_0_0 :J8_1_0 :J8_2_0 :J8_2_1" shape="63.21,45.98 62.60,39.61 60.77,39.45 60.03,39.11 59.39,38.58 58.87,37.88 58.46,37.00 52.45,39.19 53.52,42.40 53.72,43.58 53.73,44.78 53.56,46.22 53.21,48.12 59.50,49.32 60.17,47.60 60.72,46.97 61.41,46.49 62.24,46.16">
        <request index="0" response="0100" foes="0100" cont="0"/>
        <request index="1" response="0000" foes="0000" cont="0"/>
        <request index="2" response="0000" foes="0001" cont="0"/>
        <request index="3" response="0000" foes="0000" cont="0"/>
    </junction>
    <junction id="J9" type="priority" x="32.73" y="20.88" incLanes="-E1_0 E7_0 E7_1" intLanes=":J9_0_0 :J9_1_0 :J9_2_0 :J9_2_1" shape="35.57,22.66 38.97,17.24 37.04,15.64 36.34,14.71 35.82,13.69 35.47,12.59 35.30,11.40 28.91,11.84 28.68,13.78 28.27,14.54 27.67,15.17 26.87,15.65 25.89,15.99 27.43,22.20 30.69,21.66 32.11,21.66 33.40,21.82 34.55,22.15">
        <request index="0" response="0100" foes="0100" cont="0"/>
        <request index="1" response="0000" foes="0000" cont="0"/>
        <request index="2" response="0000" foes="0001" cont="0"/>
        <request index="3" response="0000" foes="0000" cont="0"/>
    </junction>

    <connection from="-E1" to="E6" fromLane="0" toLane="0" via=":J9_0_0" dir="r" state="m" visibility="9.00"/>
    <connection from="-E3" to="E9" fromLane="0" toLane="0" via=":J8_0_0" dir="r" state="m" visibility="9.00"/>
    <connection from="E0" to="E8" fromLane="0" toLane="0" via=":J11_0_0" dir="r" state="m" visibility="9.00"/>
    <connection from="E2" to="E7" fromLane="0" toLane="0" via=":J10_3_0" dir="r" state="m" visibility="9.00"/>
    <connection from="E6" to="E30" fromLane="0" toLane="0" via=":J8_1_0" dir="r" state="M"/>
    <connection from="E6" to="E9" fromLane="0" toLane="0" via=":J8_2_0" dir="s" state="M"/>
    <connection from="E6" to="E9" fromLane="1" toLane="1" via=":J8_2_1" dir="s" state="M"/>
    <connection from="E7" to="E10" fromLane="0" toLane="0" via=":J9_1_0" dir="r" state="M"/>
    <connection from="E7" to="E6" fromLane="0" toLane="0" via=":J9_2_0" dir="s" state="M"/>
    <connection from="E7" to="E6" fromLane="1" toLane="1" via=":J9_2_1" dir="s" state="M"/>
    <connection from="E8" to="-E20" fromLane="0" toLane="0" via=":J10_0_0" dir="r" state="M"/>
    <connection from="E8" to="E7" fromLane="0" toLane="0" via=":J10_1_0" dir="s" state="M"/>
    <connection from="E8" to="E7" fromLane="1" toLane="1" via=":J10_1_1" dir="s" state="M"/>
    <connection from="E9" to="-E00" fromLane="0" toLane="0" via=":J11_1_0" dir="r" state="M"/>
    <connection from="E9" to="E8" fromLane="0" toLane="0" via=":J11_2_0" dir="s" state="M"/>
    <connection from="E9" to="E8" fromLane="1" toLane="1" via=":J11_2_1" dir="s" state="M"/>

    <connection from=":J10_0" to="-E20" fromLane="0" toLane="0" dir="r" state="M"/>
    <connection from=":J10_1" to="E7" fromLane="0" toLane="0" dir="s" state="M"/>
    <connection from=":J10_1" to="E7" fromLane="1" toLane="1" dir="s" state="M"/>
    <connection from=":J10_3" to="E7" fromLane="0" toLane="0" dir="r" state="M"/>
    <connection from=":J11_0" to="E8" fromLane="0" toLane="0" dir="r" state="M"/>
    <connection from=":J11_1" to="-E00" fromLane="0" toLane="0" dir="r" state="M"/>
    <connection from=":J11_2" to="E8" fromLane="0" toLane="0" dir="s" state="M"/>
    <connection from=":J11_2" to="E8" fromLane="1" toLane="1" dir="s" state="M"/>
    <connection from=":J8_0" to="E9" fromLane="0" toLane="0" dir="r" state="M"/>
    <connection from=":J8_1" to="E30" fromLane="0" toLane="0" dir="r" state="M"/>
    <connection from=":J8_2" to="E9" fromLane="0" toLane="0" dir="s" state="M"/>
    <connection from=":J8_2" to="E9" fromLane="1" toLane="1" dir="s" state="M"/>
    <connection from=":J9_0" to="E6" fromLane="0" toLane="0" dir="r" state="M"/>
    <connection from=":J9_1" to="E10" fromLane="0" toLane="0" dir="r" state="M"/>
    <connection from=":J9_2" to="E6" fromLane="0" toLane="0" dir="s" state="M"/>
    <connection from=":J9_2" to="E6" fromLane="1" toLane="1" dir="s" state="M"/>

    <roundabout nodes="J10 J11 J8 J9" edges="E6 E7 E8 E9"/>

</net>
