<?xml version="1.0" encoding="UTF-8"?>

<!-- generated on 2023-04-04 22:59:20 by Eclipse SUMO netedit Version 1.16.0
<configuration xmlns:xsi="http://www.w3.org/2001/XMLSchema-instance" xsi:noNamespaceSchemaLocation="http://sumo.dlr.de/xsd/netconvertConfiguration.xsd">

    <input>
        <sumo-net-file value="C:\Users\tadhg_wmtcpnz\Desktop\SUMO-repo\optimal-traffic-control\Practical Basic Lights\simple-intersection.net.xml"/>
    </input>

    <output>
        <output-file value="C:\Users\tadhg_wmtcpnz\Desktop\SUMO-repo\optimal-traffic-control\Practical Basic Lights\simple-intersection.net.xml"/>
    </output>

    <processing>
        <geometry.min-radius.fix.railways value="false"/>
        <geometry.max-grade.fix value="false"/>
        <offset.disable-normalization value="true"/>
        <lefthand value="0"/>
    </processing>

    <junctions>
        <no-turnarounds value="true"/>
        <junctions.corner-detail value="5"/>
        <junctions.limit-turn-speed value="5.50"/>
        <rectangular-lane-cut value="0"/>
    </junctions>

    <pedestrian>
        <walkingareas value="0"/>
    </pedestrian>

</configuration>
-->

<net version="1.16" junctionCornerDetail="5" limitTurnSpeed="5.50" xmlns:xsi="http://www.w3.org/2001/XMLSchema-instance" xsi:noNamespaceSchemaLocation="http://sumo.dlr.de/xsd/net_file.xsd">

    <location netOffset="500.00,500.00" convBoundary="-750.00,-750.00,750.00,750.00" origBoundary="-500.00,-500.00,500.00,500.00" projParameter="!"/>

    <edge id=":J5_0" function="internal">
        <lane id=":J5_0_0" index="0" speed="6.51" length="9.03" shape="-1.60,7.20 -1.95,4.75 -3.00,3.00 -4.75,1.95 -7.20,1.60"/>
    </edge>
    <edge id=":J5_1" function="internal">
        <lane id=":J5_1_0" index="0" speed="13.89" length="14.40" shape="-1.60,7.20 -1.60,-7.20"/>
    </edge>
    <edge id=":J5_2" function="internal">
        <lane id=":J5_2_0" index="0" speed="8.00" length="4.07" shape="-1.60,7.20 -1.05,3.35 -0.96,3.20"/>
    </edge>
    <edge id=":J5_12" function="internal">
        <lane id=":J5_12_0" index="0" speed="8.00" length="10.13" shape="-0.96,3.20 0.60,0.60 3.35,-1.05 7.20,-1.60"/>
    </edge>
    <edge id=":J5_3" function="internal">
        <lane id=":J5_3_0" index="0" speed="6.51" length="9.03" shape="7.20,1.60 4.75,1.95 3.00,3.00 1.95,4.75 1.60,7.20"/>
    </edge>
    <edge id=":J5_4" function="internal">
        <lane id=":J5_4_0" index="0" speed="13.89" length="14.40" shape="7.20,1.60 -7.20,1.60"/>
    </edge>
    <edge id=":J5_5" function="internal">
        <lane id=":J5_5_0" index="0" speed="8.00" length="4.07" shape="7.20,1.60 3.35,1.05 3.20,0.96"/>
    </edge>
    <edge id=":J5_13" function="internal">
        <lane id=":J5_13_0" index="0" speed="8.00" length="10.13" shape="3.20,0.96 0.60,-0.60 -1.05,-3.35 -1.60,-7.20"/>
    </edge>
    <edge id=":J5_6" function="internal">
        <lane id=":J5_6_0" index="0" speed="6.51" length="9.03" shape="1.60,-7.20 1.95,-4.75 3.00,-3.00 4.75,-1.95 7.20,-1.60"/>
    </edge>
    <edge id=":J5_7" function="internal">
        <lane id=":J5_7_0" index="0" speed="13.89" length="14.40" shape="1.60,-7.20 1.60,7.20"/>
    </edge>
    <edge id=":J5_8" function="internal">
        <lane id=":J5_8_0" index="0" speed="8.00" length="4.07" shape="1.60,-7.20 1.05,-3.35 0.96,-3.20"/>
    </edge>
    <edge id=":J5_14" function="internal">
        <lane id=":J5_14_0" index="0" speed="8.00" length="10.13" shape="0.96,-3.20 -0.60,-0.60 -3.35,1.05 -7.20,1.60"/>
    </edge>
    <edge id=":J5_9" function="internal">
        <lane id=":J5_9_0" index="0" speed="6.51" length="9.03" shape="-7.20,-1.60 -4.75,-1.95 -3.00,-3.00 -1.95,-4.75 -1.60,-7.20"/>
    </edge>
    <edge id=":J5_10" function="internal">
        <lane id=":J5_10_0" index="0" speed="13.89" length="14.40" shape="-7.20,-1.60 7.20,-1.60"/>
    </edge>
    <edge id=":J5_11" function="internal">
        <lane id=":J5_11_0" index="0" speed="8.00" length="4.07" shape="-7.20,-1.60 -3.35,-1.05 -3.20,-0.96"/>
    </edge>
    <edge id=":J5_15" function="internal">
        <lane id=":J5_15_0" index="0" speed="8.00" length="10.13" shape="-3.20,-0.96 -0.60,0.60 1.05,3.35 1.60,7.20"/>
    </edge>

    <edge id="-E3" from="J5" to="J8" priority="-1">
        <lane id="-E3_0" index="0" speed="13.89" length="742.80" shape="-7.20,1.60 -750.00,1.60"/>
    </edge>
    <edge id="-E4" from="J5" to="J9" priority="-1">
        <lane id="-E4_0" index="0" speed="13.89" length="742.80" shape="7.20,-1.60 750.00,-1.60"/>
    </edge>
    <edge id="-E5" from="J5" to="J14" priority="-1">
        <lane id="-E5_0" index="0" speed="13.89" length="692.80" shape="1.60,7.20 1.60,700.00"/>
    </edge>
    <edge id="-E6" from="J5" to="J10" priority="-1">
        <lane id="-E6_0" index="0" speed="13.89" length="742.80" shape="-1.60,-7.20 -1.60,-750.00"/>
    </edge>
    <edge id="E3" from="J8" to="J5" priority="-1">
        <lane id="E3_0" index="0" speed="13.89" length="742.80" shape="-750.00,-1.60 -7.20,-1.60"/>
    </edge>
    <edge id="E4" from="J9" to="J5" priority="-1">
        <lane id="E4_0" index="0" speed="13.89" length="742.80" shape="750.00,1.60 7.20,1.60"/>
    </edge>
    <edge id="E5" from="J14" to="J5" priority="-1">
        <lane id="E5_0" index="0" speed="13.89" length="692.80" shape="-1.60,700.00 -1.60,7.20"/>
    </edge>
    <edge id="E6" from="J10" to="J5" priority="-1">
        <lane id="E6_0" index="0" speed="13.89" length="742.80" shape="1.60,-750.00 1.60,-7.20"/>
    </edge>

    <tlLogic id="J5" type="static" programID="0" offset="0">
        <phase duration="42" state="GGgrrrGGgrrr"/>
        <phase duration="3"  state="yyyrrryyyrrr"/>
        <phase duration="2"  state="rrrrrrrrrrrr"/>
        <phase duration="42" state="rrrGGgrrrGGg"/>
        <phase duration="3"  state="rrryyyrrryyy"/>
        <phase duration="2"  state="rrrrrrrrrrrr"/>
    </tlLogic>

    <junction id="J10" type="dead_end" x="0.00" y="-750.00" incLanes="-E6_0" intLanes="" shape="0.00,-750.00 -3.20,-750.00 0.00,-750.00"/>
    <junction id="J14" type="dead_end" x="0.00" y="700.00" incLanes="-E5_0" intLanes="" shape="0.00,700.00 3.20,700.00 0.00,700.00"/>
    <junction id="J5" type="traffic_light" x="0.00" y="0.00" incLanes="E5_0 E4_0 E6_0 E3_0" intLanes=":J5_0_0 :J5_1_0 :J5_12_0 :J5_3_0 :J5_4_0 :J5_13_0 :J5_6_0 :J5_7_0 :J5_14_0 :J5_9_0 :J5_10_0 :J5_15_0" shape="-3.20,7.20 3.20,7.20 3.64,4.98 4.20,4.20 4.98,3.64 5.98,3.31 7.20,3.20 7.20,-3.20 4.98,-3.64 4.20,-4.20 3.64,-4.98 3.31,-5.98 3.20,-7.20 -3.20,-7.20 -3.64,-4.98 -4.20,-4.20 -4.98,-3.64 -5.98,-3.31 -7.20,-3.20 -7.20,3.20 -4.98,3.64 -4.20,4.20 -3.64,4.98 -3.31,5.98">
        <request index="0"  response="000000000000" foes="000100010000" cont="0"/>
        <request index="1"  response="100000100000" foes="111100110000" cont="0"/>
        <request index="2"  response="100111100000" foes="110111110000" cont="1"/>
        <request index="3"  response="000010000000" foes="100010000000" cont="0"/>
        <request index="4"  response="000110000111" foes="100110000111" cont="0"/>
        <request index="5"  response="011110000110" foes="111110000110" cont="1"/>
        <request index="6"  response="000000000000" foes="010000000100" cont="0"/>
        <request index="7"  response="100000100000" foes="110000111100" cont="0"/>
        <request index="8"  response="100000100011" foes="110000110111" cont="1"/>
        <request index="9"  response="000000000010" foes="000000100010" cont="0"/>
        <request index="10" response="000111000110" foes="000111100110" cont="0"/>
        <request index="11" response="000110111110" foes="000110111110" cont="1"/>
    </junction>
    <junction id="J7" type="dead_end" x="0.00" y="750.00" incLanes="" intLanes="" shape="0.00,750.00"/>
    <junction id="J8" type="dead_end" x="-750.00" y="0.00" incLanes="-E3_0" intLanes="" shape="-750.00,0.00 -750.00,3.20 -750.00,0.00"/>
    <junction id="J9" type="dead_end" x="750.00" y="0.00" incLanes="-E4_0" intLanes="" shape="750.00,0.00 750.00,-3.20 750.00,0.00"/>

    <junction id=":J5_12_0" type="internal" x="-0.96" y="3.20" incLanes=":J5_2_0 E6_0" intLanes=":J5_4_0 :J5_5_0 :J5_6_0 :J5_7_0 :J5_10_0 :J5_11_0"/>
    <junction id=":J5_13_0" type="internal" x="3.20" y="0.96" incLanes=":J5_5_0 E3_0" intLanes=":J5_1_0 :J5_2_0 :J5_7_0 :J5_8_0 :J5_9_0 :J5_10_0"/>
    <junction id=":J5_14_0" type="internal" x="0.96" y="-3.20" incLanes=":J5_8_0 E5_0" intLanes=":J5_0_0 :J5_1_0 :J5_4_0 :J5_5_0 :J5_10_0 :J5_11_0"/>
    <junction id=":J5_15_0" type="internal" x="-3.20" y="-0.96" incLanes=":J5_11_0 E4_0" intLanes=":J5_1_0 :J5_2_0 :J5_3_0 :J5_4_0 :J5_7_0 :J5_8_0"/>

    <connection from="E3" to="-E6" fromLane="0" toLane="0" via=":J5_9_0" tl="J5" linkIndex="9" dir="r" state="o"/>
    <connection from="E3" to="-E4" fromLane="0" toLane="0" via=":J5_10_0" tl="J5" linkIndex="10" dir="s" state="o"/>
    <connection from="E3" to="-E5" fromLane="0" toLane="0" via=":J5_11_0" tl="J5" linkIndex="11" dir="l" state="o"/>
    <connection from="E4" to="-E5" fromLane="0" toLane="0" via=":J5_3_0" tl="J5" linkIndex="3" dir="r" state="o"/>
    <connection from="E4" to="-E3" fromLane="0" toLane="0" via=":J5_4_0" tl="J5" linkIndex="4" dir="s" state="o"/>
    <connection from="E4" to="-E6" fromLane="0" toLane="0" via=":J5_5_0" tl="J5" linkIndex="5" dir="l" state="o"/>
    <connection from="E5" to="-E3" fromLane="0" toLane="0" via=":J5_0_0" tl="J5" linkIndex="0" dir="r" state="O"/>
    <connection from="E5" to="-E6" fromLane="0" toLane="0" via=":J5_1_0" tl="J5" linkIndex="1" dir="s" state="O"/>
    <connection from="E5" to="-E4" fromLane="0" toLane="0" via=":J5_2_0" tl="J5" linkIndex="2" dir="l" state="o"/>
    <connection from="E6" to="-E4" fromLane="0" toLane="0" via=":J5_6_0" tl="J5" linkIndex="6" dir="r" state="O"/>
    <connection from="E6" to="-E5" fromLane="0" toLane="0" via=":J5_7_0" tl="J5" linkIndex="7" dir="s" state="O"/>
    <connection from="E6" to="-E3" fromLane="0" toLane="0" via=":J5_8_0" tl="J5" linkIndex="8" dir="l" state="o"/>

    <connection from=":J5_0" to="-E3" fromLane="0" toLane="0" dir="r" state="M"/>
    <connection from=":J5_1" to="-E6" fromLane="0" toLane="0" dir="s" state="M"/>
    <connection from=":J5_2" to="-E4" fromLane="0" toLane="0" via=":J5_12_0" dir="l" state="m"/>
    <connection from=":J5_12" to="-E4" fromLane="0" toLane="0" dir="l" state="M"/>
    <connection from=":J5_3" to="-E5" fromLane="0" toLane="0" dir="r" state="M"/>
    <connection from=":J5_4" to="-E3" fromLane="0" toLane="0" dir="s" state="M"/>
    <connection from=":J5_5" to="-E6" fromLane="0" toLane="0" via=":J5_13_0" dir="l" state="m"/>
    <connection from=":J5_13" to="-E6" fromLane="0" toLane="0" dir="l" state="M"/>
    <connection from=":J5_6" to="-E4" fromLane="0" toLane="0" dir="r" state="M"/>
    <connection from=":J5_7" to="-E5" fromLane="0" toLane="0" dir="s" state="M"/>
    <connection from=":J5_8" to="-E3" fromLane="0" toLane="0" via=":J5_14_0" dir="l" state="m"/>
    <connection from=":J5_14" to="-E3" fromLane="0" toLane="0" dir="l" state="M"/>
    <connection from=":J5_9" to="-E6" fromLane="0" toLane="0" dir="r" state="M"/>
    <connection from=":J5_10" to="-E4" fromLane="0" toLane="0" dir="s" state="M"/>
    <connection from=":J5_11" to="-E5" fromLane="0" toLane="0" via=":J5_15_0" dir="l" state="m"/>
    <connection from=":J5_15" to="-E5" fromLane="0" toLane="0" dir="l" state="M"/>

</net>
