<?xml version="1.0" encoding="UTF-8"?>
<routes>
                <vType accel="1.0" decel="4.5" id="standard_car" length="5.0" minGap="2.5" maxSpeed="25" sigma="0.5" />

                <route id="W_N" edges="-E0 E5 E4 E3 E10"/>
                <route id="W_E" edges="-E0 E5 E4 E20"/>
                <route id="W_S" edges="-E0 E5 E30"/>
                <route id="N_W" edges="-E1 E6 E00"/>
                <route id="N_E" edges="-E1 E6 E5 E4 E20"/>
                <route id="N_S" edges="-E1 E6 E5 E30"/>
                <route id="E_W" edges="-E2 E3 E6 E00"/>
                <route id="E_N" edges="-E2 E3 E10"/>
                <route id="E_S" edges="-E2 E3 E6 E5 E30"/>
                <route id="S_W" edges="-E3 E4 E3 E6 E00"/>
                <route id="S_N" edges="-E3 E4 E3 E10"/>
                <route id="S_E" edges="-E3 E4 E20"/>
    <vehicle id="N_S_0" type="standard_car" route="N_S" depart="96.0" departLane="random" departSpeed="10" />
    <vehicle id="S_E_1" type="standard_car" route="S_E" depart="96.0" departLane="random" departSpeed="10" />
    <vehicle id="N_S_2" type="standard_car" route="N_S" depart="141.0" departLane="random" departSpeed="10" />
    <vehicle id="S_N_3" type="standard_car" route="S_N" depart="153.0" departLane="random" departSpeed="10" />
    <vehicle id="W_E_4" type="standard_car" route="W_E" depart="178.0" departLane="random" departSpeed="10" />
    <vehicle id="N_S_5" type="standard_car" route="N_S" depart="183.0" departLane="random" departSpeed="10" />
    <vehicle id="W_S_6" type="standard_car" route="W_S" depart="183.0" departLane="random" departSpeed="10" />
    <vehicle id="S_N_7" type="standard_car" route="S_N" depart="207.0" departLane="random" departSpeed="10" />
    <vehicle id="S_N_8" type="standard_car" route="S_N" depart="217.0" departLane="random" departSpeed="10" />
    <vehicle id="N_S_9" type="standard_car" route="N_S" depart="225.0" departLane="random" departSpeed="10" />
    <vehicle id="E_S_10" type="standard_car" route="E_S" depart="226.0" departLane="random" departSpeed="10" />
    <vehicle id="S_N_11" type="standard_car" route="S_N" depart="228.0" departLane="random" departSpeed="10" />
    <vehicle id="N_S_12" type="standard_car" route="N_S" depart="244.0" departLane="random" departSpeed="10" />
    <vehicle id="W_E_13" type="standard_car" route="W_E" depart="280.0" departLane="random" departSpeed="10" />
    <vehicle id="W_E_14" type="standard_car" route="W_E" depart="281.0" departLane="random" departSpeed="10" />
    <vehicle id="N_S_15" type="standard_car" route="N_S" depart="285.0" departLane="random" departSpeed="10" />
    <vehicle id="N_S_16" type="standard_car" route="N_S" depart="290.0" departLane="random" departSpeed="10" />
    <vehicle id="N_W_17" type="standard_car" route="N_W" depart="296.0" departLane="random" departSpeed="10" />
    <vehicle id="E_W_18" type="standard_car" route="E_W" depart="299.0" departLane="random" departSpeed="10" />
    <vehicle id="N_S_19" type="standard_car" route="N_S" depart="311.0" departLane="random" departSpeed="10" />
    <vehicle id="E_W_20" type="standard_car" route="E_W" depart="316.0" departLane="random" departSpeed="10" />
    <vehicle id="E_W_21" type="standard_car" route="E_W" depart="317.0" departLane="random" departSpeed="10" />
    <vehicle id="E_S_22" type="standard_car" route="E_S" depart="323.0" departLane="random" departSpeed="10" />
    <vehicle id="E_N_23" type="standard_car" route="E_N" depart="340.0" departLane="random" departSpeed="10" />
    <vehicle id="E_W_24" type="standard_car" route="E_W" depart="357.0" departLane="random" departSpeed="10" />
    <vehicle id="E_N_25" type="standard_car" route="E_N" depart="373.0" departLane="random" departSpeed="10" />
    <vehicle id="S_N_26" type="standard_car" route="S_N" depart="376.0" departLane="random" departSpeed="10" />
    <vehicle id="N_S_27" type="standard_car" route="N_S" depart="378.0" departLane="random" departSpeed="10" />
    <vehicle id="W_E_28" type="standard_car" route="W_E" depart="386.0" departLane="random" departSpeed="10" />
    <vehicle id="N_S_29" type="standard_car" route="N_S" depart="386.0" departLane="random" departSpeed="10" />
    <vehicle id="E_W_30" type="standard_car" route="E_W" depart="391.0" departLane="random" departSpeed="10" />
    <vehicle id="E_W_31" type="standard_car" route="E_W" depart="402.0" departLane="random" departSpeed="10" />
    <vehicle id="E_W_32" type="standard_car" route="E_W" depart="406.0" departLane="random" departSpeed="10" />
    <vehicle id="W_E_33" type="standard_car" route="W_E" depart="408.0" departLane="random" departSpeed="10" />
    <vehicle id="N_S_34" type="standard_car" route="N_S" depart="410.0" departLane="random" departSpeed="10" />
    <vehicle id="N_S_35" type="standard_car" route="N_S" depart="416.0" departLane="random" departSpeed="10" />
    <vehicle id="S_N_36" type="standard_car" route="S_N" depart="419.0" departLane="random" departSpeed="10" />
    <vehicle id="W_E_37" type="standard_car" route="W_E" depart="419.0" departLane="random" departSpeed="10" />
    <vehicle id="N_S_38" type="standard_car" route="N_S" depart="420.0" departLane="random" departSpeed="10" />
    <vehicle id="E_W_39" type="standard_car" route="E_W" depart="420.0" departLane="random" departSpeed="10" />
    <vehicle id="W_S_40" type="standard_car" route="W_S" depart="421.0" departLane="random" departSpeed="10" />
    <vehicle id="S_N_41" type="standard_car" route="S_N" depart="423.0" departLane="random" departSpeed="10" />
    <vehicle id="W_E_42" type="standard_car" route="W_E" depart="430.0" departLane="random" departSpeed="10" />
    <vehicle id="W_E_43" type="standard_car" route="W_E" depart="439.0" departLane="random" departSpeed="10" />
    <vehicle id="N_S_44" type="standard_car" route="N_S" depart="442.0" departLane="random" departSpeed="10" />
    <vehicle id="S_N_45" type="standard_car" route="S_N" depart="442.0" departLane="random" departSpeed="10" />
    <vehicle id="E_W_46" type="standard_car" route="E_W" depart="447.0" departLane="random" departSpeed="10" />
    <vehicle id="W_E_47" type="standard_car" route="W_E" depart="448.0" departLane="random" departSpeed="10" />
    <vehicle id="S_N_48" type="standard_car" route="S_N" depart="453.0" departLane="random" departSpeed="10" />
    <vehicle id="E_W_49" type="standard_car" route="E_W" depart="459.0" departLane="random" departSpeed="10" />
    <vehicle id="S_N_50" type="standard_car" route="S_N" depart="460.0" departLane="random" departSpeed="10" />
    <vehicle id="E_W_51" type="standard_car" route="E_W" depart="463.0" departLane="random" departSpeed="10" />
    <vehicle id="S_E_52" type="standard_car" route="S_E" depart="467.0" departLane="random" departSpeed="10" />
    <vehicle id="N_S_53" type="standard_car" route="N_S" depart="472.0" departLane="random" departSpeed="10" />
    <vehicle id="S_N_54" type="standard_car" route="S_N" depart="480.0" departLane="random" departSpeed="10" />
    <vehicle id="N_E_55" type="standard_car" route="N_E" depart="483.0" departLane="random" departSpeed="10" />
    <vehicle id="W_N_56" type="standard_car" route="W_N" depart="485.0" departLane="random" departSpeed="10" />
    <vehicle id="W_S_57" type="standard_car" route="W_S" depart="489.0" departLane="random" departSpeed="10" />
    <vehicle id="N_S_58" type="standard_car" route="N_S" depart="492.0" departLane="random" departSpeed="10" />
    <vehicle id="N_S_59" type="standard_car" route="N_S" depart="495.0" departLane="random" departSpeed="10" />
    <vehicle id="N_S_60" type="standard_car" route="N_S" depart="501.0" departLane="random" departSpeed="10" />
    <vehicle id="S_N_61" type="standard_car" route="S_N" depart="503.0" departLane="random" departSpeed="10" />
    <vehicle id="W_E_62" type="standard_car" route="W_E" depart="508.0" departLane="random" departSpeed="10" />
    <vehicle id="N_S_63" type="standard_car" route="N_S" depart="511.0" departLane="random" departSpeed="10" />
    <vehicle id="W_S_64" type="standard_car" route="W_S" depart="512.0" departLane="random" departSpeed="10" />
    <vehicle id="N_W_65" type="standard_car" route="N_W" depart="513.0" departLane="random" departSpeed="10" />
    <vehicle id="N_S_66" type="standard_car" route="N_S" depart="515.0" departLane="random" departSpeed="10" />
    <vehicle id="S_W_67" type="standard_car" route="S_W" depart="515.0" departLane="random" departSpeed="10" />
    <vehicle id="W_E_68" type="standard_car" route="W_E" depart="515.0" departLane="random" departSpeed="10" />
    <vehicle id="S_N_69" type="standard_car" route="S_N" depart="517.0" departLane="random" departSpeed="10" />
    <vehicle id="E_N_70" type="standard_car" route="E_N" depart="517.0" departLane="random" departSpeed="10" />
    <vehicle id="W_E_71" type="standard_car" route="W_E" depart="521.0" departLane="random" departSpeed="10" />
    <vehicle id="N_S_72" type="standard_car" route="N_S" depart="523.0" departLane="random" departSpeed="10" />
    <vehicle id="W_N_73" type="standard_car" route="W_N" depart="526.0" departLane="random" departSpeed="10" />
    <vehicle id="E_W_74" type="standard_car" route="E_W" depart="528.0" departLane="random" departSpeed="10" />
    <vehicle id="E_N_75" type="standard_car" route="E_N" depart="529.0" departLane="random" departSpeed="10" />
    <vehicle id="E_W_76" type="standard_car" route="E_W" depart="531.0" departLane="random" departSpeed="10" />
    <vehicle id="W_E_77" type="standard_car" route="W_E" depart="531.0" departLane="random" departSpeed="10" />
    <vehicle id="E_W_78" type="standard_car" route="E_W" depart="532.0" departLane="random" departSpeed="10" />
    <vehicle id="N_E_79" type="standard_car" route="N_E" depart="532.0" departLane="random" departSpeed="10" />
    <vehicle id="S_W_80" type="standard_car" route="S_W" depart="539.0" departLane="random" departSpeed="10" />
    <vehicle id="S_N_81" type="standard_car" route="S_N" depart="539.0" departLane="random" departSpeed="10" />
    <vehicle id="S_W_82" type="standard_car" route="S_W" depart="541.0" departLane="random" departSpeed="10" />
    <vehicle id="N_W_83" type="standard_car" route="N_W" depart="543.0" departLane="random" departSpeed="10" />
    <vehicle id="S_W_84" type="standard_car" route="S_W" depart="543.0" departLane="random" departSpeed="10" />
    <vehicle id="S_N_85" type="standard_car" route="S_N" depart="544.0" departLane="random" departSpeed="10" />
    <vehicle id="E_S_86" type="standard_car" route="E_S" depart="544.0" departLane="random" departSpeed="10" />
    <vehicle id="E_S_87" type="standard_car" route="E_S" depart="544.0" departLane="random" departSpeed="10" />
    <vehicle id="E_W_88" type="standard_car" route="E_W" depart="546.0" departLane="random" departSpeed="10" />
    <vehicle id="S_N_89" type="standard_car" route="S_N" depart="547.0" departLane="random" departSpeed="10" />
    <vehicle id="N_S_90" type="standard_car" route="N_S" depart="548.0" departLane="random" departSpeed="10" />
    <vehicle id="S_N_91" type="standard_car" route="S_N" depart="550.0" departLane="random" departSpeed="10" />
    <vehicle id="E_W_92" type="standard_car" route="E_W" depart="552.0" departLane="random" departSpeed="10" />
    <vehicle id="S_N_93" type="standard_car" route="S_N" depart="553.0" departLane="random" departSpeed="10" />
    <vehicle id="E_N_94" type="standard_car" route="E_N" depart="554.0" departLane="random" departSpeed="10" />
    <vehicle id="W_S_95" type="standard_car" route="W_S" depart="555.0" departLane="random" departSpeed="10" />
    <vehicle id="W_S_96" type="standard_car" route="W_S" depart="557.0" departLane="random" departSpeed="10" />
    <vehicle id="E_W_97" type="standard_car" route="E_W" depart="559.0" departLane="random" departSpeed="10" />
    <vehicle id="W_E_98" type="standard_car" route="W_E" depart="559.0" departLane="random" departSpeed="10" />
    <vehicle id="E_W_99" type="standard_car" route="E_W" depart="559.0" departLane="random" departSpeed="10" />
    <vehicle id="E_W_100" type="standard_car" route="E_W" depart="561.0" departLane="random" departSpeed="10" />
    <vehicle id="S_E_101" type="standard_car" route="S_E" depart="563.0" departLane="random" departSpeed="10" />
    <vehicle id="E_W_102" type="standard_car" route="E_W" depart="569.0" departLane="random" departSpeed="10" />
    <vehicle id="E_W_103" type="standard_car" route="E_W" depart="569.0" departLane="random" departSpeed="10" />
    <vehicle id="E_W_104" type="standard_car" route="E_W" depart="574.0" departLane="random" departSpeed="10" />
    <vehicle id="E_W_105" type="standard_car" route="E_W" depart="574.0" departLane="random" departSpeed="10" />
    <vehicle id="E_N_106" type="standard_car" route="E_N" depart="576.0" departLane="random" departSpeed="10" />
    <vehicle id="N_S_107" type="standard_car" route="N_S" depart="577.0" departLane="random" departSpeed="10" />
    <vehicle id="E_N_108" type="standard_car" route="E_N" depart="580.0" departLane="random" departSpeed="10" />
    <vehicle id="E_W_109" type="standard_car" route="E_W" depart="582.0" departLane="random" departSpeed="10" />
    <vehicle id="S_N_110" type="standard_car" route="S_N" depart="583.0" departLane="random" departSpeed="10" />
    <vehicle id="W_E_111" type="standard_car" route="W_E" depart="586.0" departLane="random" departSpeed="10" />
    <vehicle id="S_E_112" type="standard_car" route="S_E" depart="591.0" departLane="random" departSpeed="10" />
    <vehicle id="N_W_113" type="standard_car" route="N_W" depart="594.0" departLane="random" departSpeed="10" />
    <vehicle id="N_S_114" type="standard_car" route="N_S" depart="595.0" departLane="random" departSpeed="10" />
    <vehicle id="S_W_115" type="standard_car" route="S_W" depart="596.0" departLane="random" departSpeed="10" />
    <vehicle id="W_E_116" type="standard_car" route="W_E" depart="596.0" departLane="random" departSpeed="10" />
    <vehicle id="N_E_117" type="standard_car" route="N_E" depart="605.0" departLane="random" departSpeed="10" />
    <vehicle id="W_E_118" type="standard_car" route="W_E" depart="605.0" departLane="random" departSpeed="10" />
    <vehicle id="E_S_119" type="standard_car" route="E_S" depart="608.0" departLane="random" departSpeed="10" />
    <vehicle id="N_S_120" type="standard_car" route="N_S" depart="608.0" departLane="random" departSpeed="10" />
    <vehicle id="N_W_121" type="standard_car" route="N_W" depart="609.0" departLane="random" departSpeed="10" />
    <vehicle id="S_N_122" type="standard_car" route="S_N" depart="609.0" departLane="random" departSpeed="10" />
    <vehicle id="E_W_123" type="standard_car" route="E_W" depart="610.0" departLane="random" departSpeed="10" />
    <vehicle id="W_E_124" type="standard_car" route="W_E" depart="613.0" departLane="random" departSpeed="10" />
    <vehicle id="S_N_125" type="standard_car" route="S_N" depart="614.0" departLane="random" departSpeed="10" />
    <vehicle id="W_E_126" type="standard_car" route="W_E" depart="614.0" departLane="random" departSpeed="10" />
    <vehicle id="E_W_127" type="standard_car" route="E_W" depart="616.0" departLane="random" departSpeed="10" />
    <vehicle id="W_E_128" type="standard_car" route="W_E" depart="621.0" departLane="random" departSpeed="10" />
    <vehicle id="E_S_129" type="standard_car" route="E_S" depart="623.0" departLane="random" departSpeed="10" />
    <vehicle id="E_W_130" type="standard_car" route="E_W" depart="625.0" departLane="random" departSpeed="10" />
    <vehicle id="W_E_131" type="standard_car" route="W_E" depart="625.0" departLane="random" departSpeed="10" />
    <vehicle id="W_E_132" type="standard_car" route="W_E" depart="626.0" departLane="random" departSpeed="10" />
    <vehicle id="W_E_133" type="standard_car" route="W_E" depart="627.0" departLane="random" departSpeed="10" />
    <vehicle id="N_S_134" type="standard_car" route="N_S" depart="628.0" departLane="random" departSpeed="10" />
    <vehicle id="W_E_135" type="standard_car" route="W_E" depart="629.0" departLane="random" departSpeed="10" />
    <vehicle id="S_E_136" type="standard_car" route="S_E" depart="631.0" departLane="random" departSpeed="10" />
    <vehicle id="N_S_137" type="standard_car" route="N_S" depart="631.0" departLane="random" departSpeed="10" />
    <vehicle id="W_E_138" type="standard_car" route="W_E" depart="632.0" departLane="random" departSpeed="10" />
    <vehicle id="E_S_139" type="standard_car" route="E_S" depart="634.0" departLane="random" departSpeed="10" />
    <vehicle id="S_N_140" type="standard_car" route="S_N" depart="634.0" departLane="random" departSpeed="10" />
    <vehicle id="W_E_141" type="standard_car" route="W_E" depart="635.0" departLane="random" departSpeed="10" />
    <vehicle id="E_W_142" type="standard_car" route="E_W" depart="637.0" departLane="random" departSpeed="10" />
    <vehicle id="W_E_143" type="standard_car" route="W_E" depart="645.0" departLane="random" departSpeed="10" />
    <vehicle id="W_N_144" type="standard_car" route="W_N" depart="645.0" departLane="random" departSpeed="10" />
    <vehicle id="N_S_145" type="standard_car" route="N_S" depart="646.0" departLane="random" departSpeed="10" />
    <vehicle id="N_S_146" type="standard_car" route="N_S" depart="647.0" departLane="random" departSpeed="10" />
    <vehicle id="S_N_147" type="standard_car" route="S_N" depart="648.0" departLane="random" departSpeed="10" />
    <vehicle id="W_E_148" type="standard_car" route="W_E" depart="650.0" departLane="random" departSpeed="10" />
    <vehicle id="W_E_149" type="standard_car" route="W_E" depart="650.0" departLane="random" departSpeed="10" />
    <vehicle id="W_E_150" type="standard_car" route="W_E" depart="654.0" departLane="random" departSpeed="10" />
    <vehicle id="E_W_151" type="standard_car" route="E_W" depart="655.0" departLane="random" departSpeed="10" />
    <vehicle id="N_S_152" type="standard_car" route="N_S" depart="662.0" departLane="random" departSpeed="10" />
    <vehicle id="N_S_153" type="standard_car" route="N_S" depart="667.0" departLane="random" departSpeed="10" />
    <vehicle id="S_W_154" type="standard_car" route="S_W" depart="668.0" departLane="random" departSpeed="10" />
    <vehicle id="E_W_155" type="standard_car" route="E_W" depart="671.0" departLane="random" departSpeed="10" />
    <vehicle id="N_S_156" type="standard_car" route="N_S" depart="672.0" departLane="random" departSpeed="10" />
    <vehicle id="E_W_157" type="standard_car" route="E_W" depart="674.0" departLane="random" departSpeed="10" />
    <vehicle id="N_S_158" type="standard_car" route="N_S" depart="676.0" departLane="random" departSpeed="10" />
    <vehicle id="S_N_159" type="standard_car" route="S_N" depart="678.0" departLane="random" departSpeed="10" />
    <vehicle id="N_S_160" type="standard_car" route="N_S" depart="680.0" departLane="random" departSpeed="10" />
    <vehicle id="W_E_161" type="standard_car" route="W_E" depart="683.0" departLane="random" departSpeed="10" />
    <vehicle id="S_W_162" type="standard_car" route="S_W" depart="683.0" departLane="random" departSpeed="10" />
    <vehicle id="W_E_163" type="standard_car" route="W_E" depart="683.0" departLane="random" departSpeed="10" />
    <vehicle id="N_W_164" type="standard_car" route="N_W" depart="684.0" departLane="random" departSpeed="10" />
    <vehicle id="E_W_165" type="standard_car" route="E_W" depart="685.0" departLane="random" departSpeed="10" />
    <vehicle id="W_E_166" type="standard_car" route="W_E" depart="686.0" departLane="random" departSpeed="10" />
    <vehicle id="N_W_167" type="standard_car" route="N_W" depart="686.0" departLane="random" departSpeed="10" />
    <vehicle id="W_E_168" type="standard_car" route="W_E" depart="697.0" departLane="random" departSpeed="10" />
    <vehicle id="E_N_169" type="standard_car" route="E_N" depart="697.0" departLane="random" departSpeed="10" />
    <vehicle id="W_E_170" type="standard_car" route="W_E" depart="698.0" departLane="random" departSpeed="10" />
    <vehicle id="E_W_171" type="standard_car" route="E_W" depart="698.0" departLane="random" departSpeed="10" />
    <vehicle id="W_E_172" type="standard_car" route="W_E" depart="699.0" departLane="random" departSpeed="10" />
    <vehicle id="E_W_173" type="standard_car" route="E_W" depart="699.0" departLane="random" departSpeed="10" />
    <vehicle id="W_E_174" type="standard_car" route="W_E" depart="702.0" departLane="random" departSpeed="10" />
    <vehicle id="S_N_175" type="standard_car" route="S_N" depart="705.0" departLane="random" departSpeed="10" />
    <vehicle id="E_S_176" type="standard_car" route="E_S" depart="706.0" departLane="random" departSpeed="10" />
    <vehicle id="E_W_177" type="standard_car" route="E_W" depart="706.0" departLane="random" departSpeed="10" />
    <vehicle id="E_W_178" type="standard_car" route="E_W" depart="707.0" departLane="random" departSpeed="10" />
    <vehicle id="E_S_179" type="standard_car" route="E_S" depart="709.0" departLane="random" departSpeed="10" />
    <vehicle id="E_W_180" type="standard_car" route="E_W" depart="711.0" departLane="random" departSpeed="10" />
    <vehicle id="S_E_181" type="standard_car" route="S_E" depart="712.0" departLane="random" departSpeed="10" />
    <vehicle id="N_S_182" type="standard_car" route="N_S" depart="713.0" departLane="random" departSpeed="10" />
    <vehicle id="W_S_183" type="standard_car" route="W_S" depart="714.0" departLane="random" departSpeed="10" />
    <vehicle id="E_W_184" type="standard_car" route="E_W" depart="715.0" departLane="random" departSpeed="10" />
    <vehicle id="W_E_185" type="standard_car" route="W_E" depart="718.0" departLane="random" departSpeed="10" />
    <vehicle id="S_N_186" type="standard_car" route="S_N" depart="718.0" departLane="random" departSpeed="10" />
    <vehicle id="S_E_187" type="standard_car" route="S_E" depart="719.0" departLane="random" departSpeed="10" />
    <vehicle id="S_N_188" type="standard_car" route="S_N" depart="719.0" departLane="random" departSpeed="10" />
    <vehicle id="N_E_189" type="standard_car" route="N_E" depart="721.0" departLane="random" departSpeed="10" />
    <vehicle id="S_N_190" type="standard_car" route="S_N" depart="723.0" departLane="random" departSpeed="10" />
    <vehicle id="W_E_191" type="standard_car" route="W_E" depart="724.0" departLane="random" departSpeed="10" />
    <vehicle id="S_N_192" type="standard_car" route="S_N" depart="725.0" departLane="random" departSpeed="10" />
    <vehicle id="W_E_193" type="standard_car" route="W_E" depart="729.0" departLane="random" departSpeed="10" />
    <vehicle id="N_S_194" type="standard_car" route="N_S" depart="729.0" departLane="random" departSpeed="10" />
    <vehicle id="W_E_195" type="standard_car" route="W_E" depart="731.0" departLane="random" departSpeed="10" />
    <vehicle id="S_N_196" type="standard_car" route="S_N" depart="733.0" departLane="random" departSpeed="10" />
    <vehicle id="N_S_197" type="standard_car" route="N_S" depart="734.0" departLane="random" departSpeed="10" />
    <vehicle id="S_E_198" type="standard_car" route="S_E" depart="734.0" departLane="random" departSpeed="10" />
    <vehicle id="W_S_199" type="standard_car" route="W_S" depart="735.0" departLane="random" departSpeed="10" />
    <vehicle id="W_E_200" type="standard_car" route="W_E" depart="735.0" departLane="random" departSpeed="10" />
    <vehicle id="W_E_201" type="standard_car" route="W_E" depart="735.0" departLane="random" departSpeed="10" />
    <vehicle id="N_W_202" type="standard_car" route="N_W" depart="737.0" departLane="random" departSpeed="10" />
    <vehicle id="W_E_203" type="standard_car" route="W_E" depart="742.0" departLane="random" departSpeed="10" />
    <vehicle id="E_W_204" type="standard_car" route="E_W" depart="745.0" departLane="random" departSpeed="10" />
    <vehicle id="W_E_205" type="standard_car" route="W_E" depart="745.0" departLane="random" departSpeed="10" />
    <vehicle id="N_S_206" type="standard_car" route="N_S" depart="747.0" departLane="random" departSpeed="10" />
    <vehicle id="S_N_207" type="standard_car" route="S_N" depart="748.0" departLane="random" departSpeed="10" />
    <vehicle id="N_S_208" type="standard_car" route="N_S" depart="751.0" departLane="random" departSpeed="10" />
    <vehicle id="N_E_209" type="standard_car" route="N_E" depart="753.0" departLane="random" departSpeed="10" />
    <vehicle id="W_E_210" type="standard_car" route="W_E" depart="758.0" departLane="random" departSpeed="10" />
    <vehicle id="N_S_211" type="standard_car" route="N_S" depart="759.0" departLane="random" departSpeed="10" />
    <vehicle id="N_S_212" type="standard_car" route="N_S" depart="760.0" departLane="random" departSpeed="10" />
    <vehicle id="W_E_213" type="standard_car" route="W_E" depart="764.0" departLane="random" departSpeed="10" />
    <vehicle id="E_S_214" type="standard_car" route="E_S" depart="764.0" departLane="random" departSpeed="10" />
    <vehicle id="S_N_215" type="standard_car" route="S_N" depart="765.0" departLane="random" departSpeed="10" />
    <vehicle id="N_E_216" type="standard_car" route="N_E" depart="766.0" departLane="random" departSpeed="10" />
    <vehicle id="N_E_217" type="standard_car" route="N_E" depart="766.0" departLane="random" departSpeed="10" />
    <vehicle id="E_W_218" type="standard_car" route="E_W" depart="768.0" departLane="random" departSpeed="10" />
    <vehicle id="N_S_219" type="standard_car" route="N_S" depart="768.0" departLane="random" departSpeed="10" />
    <vehicle id="E_S_220" type="standard_car" route="E_S" depart="769.0" departLane="random" departSpeed="10" />
    <vehicle id="N_S_221" type="standard_car" route="N_S" depart="769.0" departLane="random" departSpeed="10" />
    <vehicle id="N_S_222" type="standard_car" route="N_S" depart="770.0" departLane="random" departSpeed="10" />
    <vehicle id="N_S_223" type="standard_car" route="N_S" depart="771.0" departLane="random" departSpeed="10" />
    <vehicle id="S_N_224" type="standard_car" route="S_N" depart="772.0" departLane="random" departSpeed="10" />
    <vehicle id="E_W_225" type="standard_car" route="E_W" depart="775.0" departLane="random" departSpeed="10" />
    <vehicle id="S_N_226" type="standard_car" route="S_N" depart="777.0" departLane="random" departSpeed="10" />
    <vehicle id="S_N_227" type="standard_car" route="S_N" depart="778.0" departLane="random" departSpeed="10" />
    <vehicle id="E_S_228" type="standard_car" route="E_S" depart="778.0" departLane="random" departSpeed="10" />
    <vehicle id="S_N_229" type="standard_car" route="S_N" depart="780.0" departLane="random" departSpeed="10" />
    <vehicle id="E_W_230" type="standard_car" route="E_W" depart="780.0" departLane="random" departSpeed="10" />
    <vehicle id="N_W_231" type="standard_car" route="N_W" depart="781.0" departLane="random" departSpeed="10" />
    <vehicle id="S_N_232" type="standard_car" route="S_N" depart="783.0" departLane="random" departSpeed="10" />
    <vehicle id="W_E_233" type="standard_car" route="W_E" depart="783.0" departLane="random" departSpeed="10" />
    <vehicle id="S_N_234" type="standard_car" route="S_N" depart="783.0" departLane="random" departSpeed="10" />
    <vehicle id="E_W_235" type="standard_car" route="E_W" depart="787.0" departLane="random" departSpeed="10" />
    <vehicle id="S_N_236" type="standard_car" route="S_N" depart="792.0" departLane="random" departSpeed="10" />
    <vehicle id="E_W_237" type="standard_car" route="E_W" depart="792.0" departLane="random" departSpeed="10" />
    <vehicle id="E_W_238" type="standard_car" route="E_W" depart="794.0" departLane="random" departSpeed="10" />
    <vehicle id="S_W_239" type="standard_car" route="S_W" depart="794.0" departLane="random" departSpeed="10" />
    <vehicle id="W_E_240" type="standard_car" route="W_E" depart="796.0" departLane="random" departSpeed="10" />
    <vehicle id="S_N_241" type="standard_car" route="S_N" depart="798.0" departLane="random" departSpeed="10" />
    <vehicle id="S_N_242" type="standard_car" route="S_N" depart="798.0" departLane="random" departSpeed="10" />
    <vehicle id="W_E_243" type="standard_car" route="W_E" depart="799.0" departLane="random" departSpeed="10" />
    <vehicle id="E_W_244" type="standard_car" route="E_W" depart="799.0" departLane="random" departSpeed="10" />
    <vehicle id="S_N_245" type="standard_car" route="S_N" depart="799.0" departLane="random" departSpeed="10" />
    <vehicle id="S_N_246" type="standard_car" route="S_N" depart="800.0" departLane="random" departSpeed="10" />
    <vehicle id="E_S_247" type="standard_car" route="E_S" depart="802.0" departLane="random" departSpeed="10" />
    <vehicle id="E_W_248" type="standard_car" route="E_W" depart="804.0" departLane="random" departSpeed="10" />
    <vehicle id="E_N_249" type="standard_car" route="E_N" depart="806.0" departLane="random" departSpeed="10" />
    <vehicle id="N_S_250" type="standard_car" route="N_S" depart="806.0" departLane="random" departSpeed="10" />
    <vehicle id="E_W_251" type="standard_car" route="E_W" depart="807.0" departLane="random" departSpeed="10" />
    <vehicle id="W_N_252" type="standard_car" route="W_N" depart="807.0" departLane="random" departSpeed="10" />
    <vehicle id="N_S_253" type="standard_car" route="N_S" depart="808.0" departLane="random" departSpeed="10" />
    <vehicle id="E_W_254" type="standard_car" route="E_W" depart="809.0" departLane="random" departSpeed="10" />
    <vehicle id="S_N_255" type="standard_car" route="S_N" depart="813.0" departLane="random" departSpeed="10" />
    <vehicle id="E_W_256" type="standard_car" route="E_W" depart="813.0" departLane="random" departSpeed="10" />
    <vehicle id="W_E_257" type="standard_car" route="W_E" depart="816.0" departLane="random" departSpeed="10" />
    <vehicle id="E_N_258" type="standard_car" route="E_N" depart="816.0" departLane="random" departSpeed="10" />