<?xml version="1.0" encoding="UTF-8"?>

<!-- generated on 2023-04-21 23:24:10 by Eclipse SUMO netedit Version 1.16.0
<configuration xmlns:xsi="http://www.w3.org/2001/XMLSchema-instance" xsi:noNamespaceSchemaLocation="http://sumo.dlr.de/xsd/netconvertConfiguration.xsd">

    <input>
        <sumo-net-file value="C:\Users\tadhg_wmtcpnz\Desktop\SUMO-repo\optimal-traffic-control\SUMO-deep-learner\intersection\kinsale.net.xml"/>
    </input>

    <output>
        <output-file value="C:\Users\tadhg_wmtcpnz\Desktop\SUMO-repo\optimal-traffic-control\SUMO-deep-learner\intersection\kinsale.net.xml"/>
    </output>

    <processing>
        <geometry.min-radius.fix.railways value="false"/>
        <geometry.max-grade.fix value="false"/>
        <offset.disable-normalization value="true"/>
        <lefthand value="0"/>
    </processing>

    <junctions>
        <no-turnarounds value="true"/>
        <junctions.corner-detail value="5"/>
        <junctions.limit-turn-speed value="5.50"/>
        <rectangular-lane-cut value="0"/>
    </junctions>

    <pedestrian>
        <walkingareas value="0"/>
    </pedestrian>

</configuration>
-->

<net version="1.16" junctionCornerDetail="5" limitTurnSpeed="5.50" xmlns:xsi="http://www.w3.org/2001/XMLSchema-instance" xsi:noNamespaceSchemaLocation="http://sumo.dlr.de/xsd/net_file.xsd">

    <location netOffset="-535658.46,-5746882.17" convBoundary="464.28,46.20,1137.59,466.05" origBoundary="-8.482017,51.871532,-8.449926,51.876354" projParameter="+proj=utm +zone=29 +ellps=WGS84 +datum=WGS84 +units=m +no_defs"/>

    <type id="highway.bridleway" priority="1" numLanes="1" speed="2.78" allow="pedestrian" oneway="1" width="2.00"/>
    <type id="highway.bus_guideway" priority="1" numLanes="1" speed="27.78" allow="bus" oneway="1"/>
    <type id="highway.cycleway" priority="1" numLanes="1" speed="5.56" allow="bicycle" oneway="0" width="1.00"/>
    <type id="highway.footway" priority="1" numLanes="1" speed="2.78" allow="pedestrian" oneway="1" width="2.00"/>
    <type id="highway.ford" priority="1" numLanes="1" speed="2.78" allow="army" oneway="0"/>
    <type id="highway.living_street" priority="2" numLanes="1" speed="2.78" disallow="tram rail_urban rail rail_electric rail_fast ship" oneway="0"/>
    <type id="highway.motorway" priority="14" numLanes="2" speed="39.44" allow="private emergency authority army vip passenger hov taxi bus coach delivery truck trailer motorcycle evehicle custom1 custom2" oneway="1"/>
    <type id="highway.motorway_link" priority="9" numLanes="1" speed="22.22" allow="private emergency authority army vip passenger hov taxi bus coach delivery truck trailer motorcycle evehicle custom1 custom2" oneway="1"/>
    <type id="highway.path" priority="1" numLanes="1" speed="5.56" allow="pedestrian bicycle" oneway="0" width="2.00"/>
    <type id="highway.pedestrian" priority="1" numLanes="1" speed="2.78" allow="pedestrian" oneway="1" width="2.00"/>
    <type id="highway.primary" priority="12" numLanes="2" speed="27.78" disallow="tram rail_urban rail rail_electric rail_fast ship" oneway="0"/>
    <type id="highway.primary_link" priority="7" numLanes="1" speed="22.22" disallow="tram rail_urban rail rail_electric rail_fast ship" oneway="0"/>
    <type id="highway.raceway" priority="15" numLanes="2" speed="83.33" allow="vip" oneway="0"/>
    <type id="highway.residential" priority="3" numLanes="1" speed="13.89" disallow="tram rail_urban rail rail_electric rail_fast ship" oneway="0"/>
    <type id="highway.secondary" priority="11" numLanes="1" speed="27.78" disallow="tram rail_urban rail rail_electric rail_fast ship" oneway="0"/>
    <type id="highway.secondary_link" priority="6" numLanes="1" speed="22.22" disallow="tram rail_urban rail rail_electric rail_fast ship" oneway="0"/>
    <type id="highway.service" priority="1" numLanes="1" speed="5.56" allow="pedestrian delivery bicycle" oneway="0"/>
    <type id="highway.stairs" priority="1" numLanes="1" speed="1.39" allow="pedestrian" oneway="1" width="2.00"/>
    <type id="highway.step" priority="1" numLanes="1" speed="1.39" allow="pedestrian" oneway="1" width="2.00"/>
    <type id="highway.steps" priority="1" numLanes="1" speed="1.39" allow="pedestrian" oneway="1" width="2.00"/>
    <type id="highway.tertiary" priority="10" numLanes="1" speed="22.22" disallow="tram rail_urban rail rail_electric rail_fast ship" oneway="0"/>
    <type id="highway.tertiary_link" priority="5" numLanes="1" speed="22.22" disallow="tram rail_urban rail rail_electric rail_fast ship" oneway="0"/>
    <type id="highway.track" priority="1" numLanes="1" speed="5.56" allow="pedestrian motorcycle moped bicycle" oneway="0"/>
    <type id="highway.trunk" priority="13" numLanes="2" speed="27.78" disallow="pedestrian bicycle tram rail_urban rail rail_electric rail_fast ship" oneway="0"/>
    <type id="highway.trunk_link" priority="8" numLanes="1" speed="22.22" disallow="pedestrian bicycle tram rail_urban rail rail_electric rail_fast ship" oneway="0"/>
    <type id="highway.unclassified" priority="4" numLanes="1" speed="13.89" disallow="tram rail_urban rail rail_electric rail_fast ship" oneway="0"/>
    <type id="highway.unsurfaced" priority="1" numLanes="1" speed="8.33" disallow="tram rail_urban rail rail_electric rail_fast ship" oneway="0"/>
    <type id="railway.highspeed" priority="21" numLanes="1" speed="69.44" allow="rail_fast" oneway="1"/>
    <type id="railway.light_rail" priority="19" numLanes="1" speed="27.78" allow="rail_urban" oneway="1"/>
    <type id="railway.preserved" priority="16" numLanes="1" speed="27.78" allow="rail" oneway="1"/>
    <type id="railway.rail" priority="20" numLanes="1" speed="44.44" allow="rail" oneway="1"/>
    <type id="railway.subway" priority="18" numLanes="1" speed="27.78" allow="rail_urban" oneway="1"/>
    <type id="railway.tram" priority="17" numLanes="1" speed="13.89" allow="tram" oneway="1"/>

    <edge id=":1514163695_0" function="internal">
        <lane id=":1514163695_0_0" index="0" disallow="bicycle tram rail_urban rail rail_electric rail_fast ship" speed="27.78" length="0.71" shape="784.83,257.90 784.85,257.95 784.86,257.98 784.88,258.01 784.91,258.06"/>
        <lane id=":1514163695_0_1" index="1" disallow="bicycle tram rail_urban rail rail_electric rail_fast ship" speed="27.78" length="0.71" shape="781.93,259.26 782.00,259.40 782.04,259.50 782.10,259.59 782.18,259.73"/>
        <lane id=":1514163695_0_2" index="2" disallow="bicycle tram rail_urban rail rail_electric rail_fast ship" speed="27.78" length="0.71" shape="779.03,260.62 779.14,260.86 779.22,261.02 779.31,261.17 779.45,261.40"/>
        <lane id=":1514163695_0_3" index="3" disallow="bicycle tram rail_urban rail rail_electric rail_fast ship" speed="27.78" length="0.71" shape="776.13,261.97 776.29,262.31 776.40,262.53 776.53,262.75 776.72,263.07"/>
    </edge>
    <edge id=":2036623_0" function="internal">
        <lane id=":2036623_0_0" index="0" disallow="bicycle tram rail_urban rail rail_electric rail_fast ship" speed="7.58" length="15.43" shape="804.01,294.32 804.59,289.93 806.43,287.21 809.55,286.15 813.93,286.75"/>
        <lane id=":2036623_0_1" index="1" disallow="bicycle tram rail_urban rail rail_electric rail_fast ship" speed="5.97" length="9.09" shape="807.21,294.29 807.55,291.70 808.64,290.10 810.47,289.47 813.05,289.83"/>
    </edge>
    <edge id=":2036623_2" function="internal">
        <lane id=":2036623_2_0" index="0" disallow="bicycle tram rail_urban rail rail_electric rail_fast ship" speed="27.78" length="14.05" shape="803.79,276.07 807.09,277.91 809.50,278.90 812.02,279.61 815.69,280.60"/>
        <lane id=":2036623_2_1" index="1" disallow="bicycle tram rail_urban rail rail_electric rail_fast ship" speed="27.78" length="14.05" shape="802.15,278.82 805.67,280.78 808.22,281.85 810.90,282.62 814.81,283.68"/>
        <lane id=":2036623_2_2" index="2" disallow="bicycle tram rail_urban rail rail_electric rail_fast ship" speed="27.78" length="14.05" shape="800.51,281.57 804.24,283.66 806.94,284.80 809.79,285.63 813.93,286.75"/>
        <lane id=":2036623_2_3" index="3" disallow="bicycle tram rail_urban rail rail_electric rail_fast ship" speed="27.78" length="14.05" shape="798.87,284.32 802.81,286.53 805.67,287.75 808.67,288.63 813.05,289.83"/>
    </edge>
    <edge id=":241744826_0" function="internal">
        <lane id=":241744826_0_0" index="0" disallow="bicycle tram rail_urban rail rail_electric rail_fast ship" speed="27.78" length="16.48" shape="779.24,241.37 780.39,245.87 781.17,248.97 782.18,251.98 784.04,256.23"/>
        <lane id=":241744826_0_1" index="1" disallow="bicycle tram rail_urban rail rail_electric rail_fast ship" speed="27.78" length="16.48" shape="776.15,242.21 777.35,246.87 778.16,250.08 779.22,253.19 781.14,257.59"/>
        <lane id=":241744826_0_2" index="2" disallow="bicycle tram rail_urban rail rail_electric rail_fast ship" speed="27.78" length="16.48" shape="773.07,243.05 774.30,247.87 775.15,251.18 776.25,254.40 778.25,258.94"/>
        <lane id=":241744826_0_3" index="3" disallow="bicycle tram rail_urban rail rail_electric rail_fast ship" speed="27.78" length="16.48" shape="769.98,243.90 771.26,248.87 772.14,252.29 773.28,255.61 775.35,260.30"/>
    </edge>
    <edge id=":241744826_4" function="internal">
        <lane id=":241744826_4_0" index="0" disallow="pedestrian bicycle tram rail_urban rail rail_electric rail_fast ship" speed="14.22" length="20.30" shape="764.67,246.59 770.68,248.85 775.43,251.44 778.92,254.35 781.14,257.59"/>
        <lane id=":241744826_4_1" index="1" disallow="pedestrian bicycle tram rail_urban rail rail_electric rail_fast ship" speed="13.28" length="17.67" shape="763.71,249.64 769.10,251.64 773.32,253.85 776.37,256.29 778.25,258.94"/>
        <lane id=":241744826_4_2" index="2" disallow="pedestrian bicycle tram rail_urban rail rail_electric rail_fast ship" speed="12.28" length="15.04" shape="762.74,252.69 767.51,254.42 771.20,256.27 773.81,258.23 775.35,260.30"/>
    </edge>
    <edge id=":271248120_0" function="internal">
        <lane id=":271248120_0_0" index="0" disallow="bicycle tram rail_urban rail rail_electric rail_fast ship" speed="24.45" length="24.40" shape="843.00,190.90 836.36,188.23 831.51,187.21 826.46,187.24 819.25,187.78"/>
        <lane id=":271248120_0_1" index="1" disallow="bicycle tram rail_urban rail rail_electric rail_fast ship" speed="24.87" length="25.26" shape="844.31,187.99 837.44,185.19 832.42,184.05 827.21,184.02 819.74,184.54"/>
        <lane id=":271248120_0_2" index="2" disallow="bicycle tram rail_urban rail rail_electric rail_fast ship" speed="24.98" length="25.47" shape="844.31,187.99 837.49,184.67 832.67,182.41 827.65,181.28 820.23,181.30"/>
    </edge>
    <edge id=":271248120_3" function="internal">
        <lane id=":271248120_3_0" index="0" disallow="bicycle tram rail_urban rail rail_electric rail_fast ship" speed="22.23" length="23.24" shape="845.62,185.07 838.85,182.56 833.73,181.29 829.07,179.89 823.64,176.93"/>
        <lane id=":271248120_3_1" index="1" disallow="bicycle tram rail_urban rail rail_electric rail_fast ship" speed="22.23" length="23.24" shape="845.62,185.07 839.23,182.19 834.72,180.01 830.62,177.66 825.43,174.28"/>
    </edge>
    <edge id=":322604694_0" function="internal">
        <lane id=":322604694_0_0" index="0" disallow="bicycle tram rail_urban rail rail_electric rail_fast ship" speed="19.66" length="17.12" shape="792.50,197.20 789.21,200.62 787.71,203.58 786.83,206.97 785.38,211.68"/>
        <lane id=":322604694_0_1" index="1" disallow="bicycle tram rail_urban rail rail_electric rail_fast ship" speed="19.99" length="17.12" shape="790.41,194.78 786.96,198.29 785.31,201.30 784.29,204.76 782.74,209.60"/>
        <lane id=":322604694_0_2" index="2" disallow="bicycle tram rail_urban rail rail_electric rail_fast ship" speed="20.31" length="17.12" shape="788.32,192.35 784.71,195.96 782.90,199.02 781.75,202.54 780.11,207.52"/>
        <lane id=":322604694_0_3" index="3" disallow="bicycle tram rail_urban rail rail_electric rail_fast ship" speed="20.15" length="17.12" shape="788.32,192.35 784.33,195.62 781.61,197.99 779.53,200.82 777.47,205.44"/>
    </edge>
    <edge id=":322604694_4" function="internal">
        <lane id=":322604694_4_0" index="0" disallow="pedestrian bicycle tram rail_urban rail rail_electric rail_fast ship" speed="17.58" length="16.16" shape="788.32,192.35 784.70,195.48 781.98,197.42 778.91,198.63 774.27,199.56"/>
        <lane id=":322604694_4_1" index="1" disallow="pedestrian bicycle tram rail_urban rail rail_electric rail_fast ship" speed="17.22" length="15.51" shape="788.32,192.35 784.68,194.90 781.70,195.78 778.38,195.96 773.77,196.40"/>
    </edge>
    <edge id=":3565837_0" function="internal">
        <lane id=":3565837_0_0" index="0" disallow="bicycle tram rail_urban rail rail_electric rail_fast ship" speed="27.78" length="7.21" shape="836.12,282.20 838.14,282.34 839.53,282.46 840.90,282.40 842.88,282.05"/>
        <lane id=":3565837_0_1" index="1" disallow="bicycle tram rail_urban rail rail_electric rail_fast ship" speed="27.78" length="7.21" shape="835.99,285.40 838.25,285.55 839.81,285.66 841.35,285.58 843.57,285.18"/>
    </edge>
    <edge id=":3565837_2" function="internal">
        <lane id=":3565837_2_0" index="0" disallow="pedestrian bicycle tram rail_urban rail rail_electric rail_fast ship" speed="17.59" length="4.92" shape="835.85,288.60 837.30,288.68 838.29,288.83 839.25,289.14 840.60,289.70"/>
        <lane id=":3565837_2_1" index="1" disallow="pedestrian bicycle tram rail_urban rail rail_electric rail_fast ship" speed="15.48" length="3.80" shape="835.71,291.79 836.83,291.86 837.59,291.98 838.33,292.22 839.37,292.65"/>
    </edge>
    <edge id=":3565841_0" function="internal">
        <lane id=":3565841_0_0" index="0" disallow="bicycle tram rail_urban rail rail_electric rail_fast ship" speed="26.82" length="12.97" shape="864.72,209.39 863.03,206.29 861.90,204.11 860.49,202.18 857.92,199.84"/>
        <lane id=":3565841_0_1" index="1" disallow="bicycle tram rail_urban rail rail_electric rail_fast ship" speed="27.78" length="12.97" shape="867.47,207.74 865.60,204.36 864.34,201.99 862.75,199.90 859.93,197.35"/>
        <lane id=":3565841_0_2" index="2" disallow="bicycle tram rail_urban rail rail_electric rail_fast ship" speed="27.78" length="12.97" shape="870.21,206.10 868.17,202.43 866.77,199.88 865.02,197.62 861.94,194.86"/>
    </edge>
    <edge id=":3565841_3" function="internal">
        <lane id=":3565841_3_0" index="0" disallow="pedestrian bicycle tram rail_urban rail rail_electric rail_fast ship" speed="13.89" length="12.90" shape="872.27,202.35 867.76,202.68 864.49,202.88 861.53,202.19 857.92,199.84"/>
        <lane id=":3565841_3_1" index="1" disallow="pedestrian bicycle tram rail_urban rail rail_electric rail_fast ship" speed="12.84" length="12.90" shape="872.19,199.16 868.34,199.49 865.55,199.77 863.01,199.30 859.93,197.35"/>
        <lane id=":3565841_3_2" index="2" disallow="pedestrian bicycle tram rail_urban rail rail_electric rail_fast ship" speed="11.71" length="12.90" shape="872.11,195.96 868.92,196.29 866.60,196.66 864.49,196.41 861.94,194.86"/>
    </edge>
    <edge id=":3901164245_0" function="internal">
        <lane id=":3901164245_0_0" index="0" disallow="bicycle tram rail_urban rail rail_electric rail_fast ship" speed="27.78" length="0.86" shape="779.65,242.76 779.19,241.18"/>
        <lane id=":3901164245_0_1" index="1" disallow="bicycle tram rail_urban rail rail_electric rail_fast ship" speed="27.78" length="0.86" shape="776.46,242.94 776.10,242.02"/>
        <lane id=":3901164245_0_2" index="2" disallow="bicycle tram rail_urban rail rail_electric rail_fast ship" speed="27.78" length="0.86" shape="773.26,243.12 773.01,242.86"/>
        <lane id=":3901164245_0_3" index="3" disallow="bicycle tram rail_urban rail rail_electric rail_fast ship" speed="27.78" length="0.86" shape="770.07,243.30 769.93,243.70"/>
    </edge>
    <edge id=":430669_0" function="internal">
        <lane id=":430669_0_0" index="0" disallow="bicycle tram rail_urban rail rail_electric rail_fast ship" speed="16.46" length="16.98" shape="869.82,258.92 872.42,255.00 873.34,251.84 873.43,248.35 873.58,243.47"/>
        <lane id=":430669_0_1" index="1" disallow="bicycle tram rail_urban rail rail_electric rail_fast ship" speed="16.92" length="16.98" shape="872.32,260.92 875.13,256.80 876.24,253.48 876.48,249.83 876.70,244.68"/>
        <lane id=":430669_0_2" index="2" disallow="bicycle tram rail_urban rail rail_electric rail_fast ship" speed="16.90" length="16.98" shape="872.32,260.92 875.62,256.99 877.79,254.09 879.11,250.85 879.81,245.89"/>
    </edge>
    <edge id=":430669_3" function="internal">
        <lane id=":430669_3_0" index="0" disallow="pedestrian bicycle tram rail_urban rail rail_electric rail_fast ship" speed="25.00" length="16.72" shape="872.32,260.92 875.40,257.03 877.63,254.43 880.18,252.19 884.24,249.37"/>
        <lane id=":430669_3_1" index="1" disallow="pedestrian bicycle tram rail_urban rail rail_electric rail_fast ship" speed="25.00" length="16.50" shape="872.32,260.92 875.65,257.48 878.52,255.78 881.71,254.43 886.00,252.04"/>
    </edge>
    <edge id=":874302716_0" function="internal">
        <lane id=":874302716_0_0" index="0" disallow="bicycle tram rail_urban rail rail_electric rail_fast ship" speed="5.21" length="2.27" shape="823.48,176.82 823.08,176.39 823.00,175.92 823.05,175.38 823.02,174.71"/>
        <lane id=":874302716_0_1" index="1" disallow="bicycle tram rail_urban rail rail_electric rail_fast ship" speed="16.67" length="0.91" shape="825.27,174.17 826.18,174.18"/>
    </edge>
    <edge id=":9675765167_0" function="internal">
        <lane id=":9675765167_0_0" index="0" disallow="bicycle tram rail_urban rail rail_electric rail_fast ship" speed="17.53" length="9.62" shape="799.79,193.07 797.46,193.83 795.92,194.52 794.52,195.49 792.65,197.07"/>
        <lane id=":9675765167_0_1" index="1" disallow="bicycle tram rail_urban rail rail_electric rail_fast ship" speed="18.87" length="9.62" shape="798.85,190.01 796.15,190.89 794.35,191.69 792.74,192.81 790.56,194.65"/>
        <lane id=":9675765167_0_2" index="2" disallow="bicycle tram rail_urban rail rail_electric rail_fast ship" speed="20.11" length="9.62" shape="797.91,186.96 794.83,187.95 792.79,188.86 790.95,190.14 788.47,192.22"/>
    </edge>
    <edge id=":9675765167_3" function="internal">
        <lane id=":9675765167_3_0" index="0" disallow="bicycle tram rail_urban rail rail_electric rail_fast ship" speed="8.46" length="13.76" shape="793.07,184.51 794.82,188.34 795.33,191.71 794.61,194.62 792.65,197.07"/>
        <lane id=":9675765167_3_1" index="1" disallow="bicycle tram rail_urban rail rail_electric rail_fast ship" speed="6.90" length="8.84" shape="790.56,186.55 791.74,189.08 792.13,191.27 791.74,193.13 790.56,194.65"/>
        <lane id=":9675765167_3_2" index="2" disallow="bicycle tram rail_urban rail rail_electric rail_fast ship" speed="4.86" length="3.94" shape="788.04,188.58 788.65,189.81 788.93,190.83 788.87,191.63 788.47,192.22"/>
    </edge>
    <edge id=":9675765169_0" function="internal">
        <lane id=":9675765169_0_0" index="0" disallow="pedestrian bicycle tram rail_urban rail rail_electric rail_fast ship" speed="7.52" length="16.54" shape="875.80,270.31 870.69,268.43 867.97,265.93 867.64,262.81 869.70,259.07"/>
        <lane id=":9675765169_0_1" index="1" disallow="pedestrian bicycle tram rail_urban rail rail_electric rail_fast ship" speed="5.88" length="9.54" shape="876.57,267.20 873.39,266.10 871.60,264.71 871.20,263.03 872.19,261.08"/>
    </edge>
    <edge id=":9675765169_2" function="internal">
        <lane id=":9675765169_2_0" index="0" disallow="bicycle tram rail_urban rail rail_electric rail_fast ship" speed="27.78" length="13.93" shape="860.97,269.94 869.70,259.07"/>
        <lane id=":9675765169_2_1" index="1" disallow="bicycle tram rail_urban rail rail_electric rail_fast ship" speed="27.78" length="13.93" shape="863.47,271.94 872.19,261.08"/>
    </edge>
    <edge id=":J1_0" function="internal">
        <lane id=":J1_0_0" index="0" disallow="pedestrian bicycle tram rail_urban rail rail_electric rail_fast ship" speed="10.04" length="2.35" shape="759.20,245.38 760.35,245.30 761.15,245.34 761.92,245.56 762.99,245.99"/>
        <lane id=":J1_0_1" index="1" disallow="pedestrian bicycle tram rail_urban rail rail_electric rail_fast ship" speed="7.89" length="2.35" shape="759.46,248.57 760.15,248.52 760.63,248.55 761.09,248.67 761.73,248.94"/>
        <lane id=":J1_0_2" index="2" disallow="pedestrian bicycle tram rail_urban rail rail_electric rail_fast ship" speed="16.67" length="2.35" shape="759.71,251.76 759.95,251.74 760.11,251.75 760.26,251.79 760.47,251.88"/>
    </edge>
    <edge id=":J10_0" function="internal">
        <lane id=":J10_0_0" index="0" disallow="bicycle tram rail_urban rail rail_electric rail_fast ship" speed="27.78" length="1.58" shape="779.15,233.09 779.13,233.20 779.12,233.28 779.12,233.36 779.13,233.48"/>
        <lane id=":J10_0_1" index="1" disallow="bicycle tram rail_urban rail rail_electric rail_fast ship" speed="27.78" length="1.58" shape="776.01,232.48 775.95,232.83 775.92,233.07 775.91,233.31 775.93,233.66"/>
        <lane id=":J10_0_2" index="2" disallow="bicycle tram rail_urban rail rail_electric rail_fast ship" speed="27.78" length="1.58" shape="772.87,231.88 772.76,232.46 772.71,232.85 772.71,233.26 772.74,233.84"/>
        <lane id=":J10_0_3" index="3" disallow="bicycle tram rail_urban rail rail_electric rail_fast ship" speed="27.78" length="1.58" shape="769.73,231.27 769.58,232.08 769.51,232.64 769.50,233.20 769.54,234.02"/>
    </edge>
    <edge id=":J12_0" function="internal">
        <lane id=":J12_0_0" index="0" disallow="bicycle tram rail_urban rail rail_electric rail_fast ship" speed="27.78" length="2.41" shape="791.81,181.96 791.82,182.19 791.85,182.36 791.91,182.51 792.03,182.71"/>
        <lane id=":J12_0_1" index="1" disallow="bicycle tram rail_urban rail rail_electric rail_fast ship" speed="7.78" length="2.41" shape="788.61,182.05 788.65,182.76 788.73,183.25 788.92,183.70 789.26,184.32"/>
        <lane id=":J12_0_2" index="2" disallow="bicycle tram rail_urban rail rail_electric rail_fast ship" speed="9.90" length="2.41" shape="785.42,182.14 785.47,183.33 785.61,184.14 785.92,184.90 786.50,185.93"/>
    </edge>
    <edge id=":J13_0" function="internal">
        <lane id=":J13_0_0" index="0" disallow="pedestrian bicycle tram rail_urban rail rail_electric rail_fast ship" speed="22.22" length="0.47" shape="774.07,199.59 774.30,199.50"/>
        <lane id=":J13_0_1" index="1" disallow="pedestrian bicycle tram rail_urban rail rail_electric rail_fast ship" speed="22.22" length="0.47" shape="773.57,196.43 774.25,196.30"/>
    </edge>
    <edge id=":J2_0" function="internal">
        <lane id=":J2_0_0" index="0" disallow="pedestrian bicycle tram rail_urban rail rail_electric rail_fast ship" speed="16.67" length="0.47" shape="763.48,246.21 763.52,246.22 763.55,246.24 763.58,246.25 763.63,246.26"/>
        <lane id=":J2_0_1" index="1" disallow="pedestrian bicycle tram rail_urban rail rail_electric rail_fast ship" speed="16.67" length="0.47" shape="762.22,249.15 762.35,249.20 762.44,249.24 762.53,249.27 762.67,249.31"/>
        <lane id=":J2_0_2" index="2" disallow="pedestrian bicycle tram rail_urban rail rail_electric rail_fast ship" speed="16.67" length="0.47" shape="760.96,252.09 761.18,252.18 761.33,252.24 761.48,252.29 761.70,252.36"/>
    </edge>
    <edge id=":J3_0" function="internal">
        <lane id=":J3_0_0" index="0" disallow="bicycle tram rail_urban rail rail_electric rail_fast ship" speed="27.78" length="1.13" shape="857.25,274.42 857.39,274.34 857.48,274.27 857.56,274.19 857.67,274.06"/>
        <lane id=":J3_0_1" index="1" disallow="bicycle tram rail_urban rail rail_electric rail_fast ship" speed="10.46" length="1.13" shape="858.90,277.16 859.33,276.90 859.60,276.69 859.85,276.45 860.16,276.06"/>
    </edge>
    <edge id=":J7_0" function="internal">
        <lane id=":J7_0_0" index="0" disallow="bicycle tram rail_urban rail rail_electric rail_fast ship" speed="27.78" length="0.46" shape="866.84,212.90 866.52,212.39"/>
        <lane id=":J7_0_1" index="1" disallow="bicycle tram rail_urban rail rail_electric rail_fast ship" speed="27.78" length="0.46" shape="869.51,211.13 869.26,210.74"/>
        <lane id=":J7_0_2" index="2" disallow="bicycle tram rail_urban rail rail_electric rail_fast ship" speed="27.78" length="0.46" shape="872.17,209.36 872.01,209.10"/>
    </edge>
    <edge id=":J8_0" function="internal">
        <lane id=":J8_0_0" index="0" disallow="bicycle tram rail_urban rail rail_electric rail_fast ship" speed="27.78" length="0.43" shape="808.98,190.25 808.69,190.33"/>
        <lane id=":J8_0_1" index="1" disallow="bicycle tram rail_urban rail rail_electric rail_fast ship" speed="27.78" length="0.43" shape="808.17,187.16 807.75,187.27"/>
        <lane id=":J8_0_2" index="2" disallow="bicycle tram rail_urban rail rail_electric rail_fast ship" speed="27.78" length="0.43" shape="807.36,184.06 806.81,184.22"/>
    </edge>

    <edge id="146345708" from="3565837" to="1596088634" priority="13" type="highway.trunk" spreadType="center" shape="829.24,286.71 842.12,292.06 862.25,302.50 892.15,331.09 935.52,376.65">
        <lane id="146345708_0" index="0" disallow="pedestrian bicycle tram rail_urban rail rail_electric rail_fast ship" speed="13.89" length="129.26" shape="840.60,289.70 842.80,290.61 863.19,301.19 893.28,329.96 936.68,375.55"/>
        <lane id="146345708_1" index="1" disallow="pedestrian bicycle tram rail_urban rail rail_electric rail_fast ship" speed="13.89" length="129.26" shape="839.37,292.65 841.44,293.51 861.31,303.81 891.02,332.22 934.36,377.75"/>
        <param key="ref" value="N27"/>
    </edge>
    <edge id="217919300#0" from="1515447425" to="J12" priority="13" type="highway.trunk" spreadType="center" length="200.00" shape="784.58,46.20 788.00,134.58 788.15,162.09 788.25,169.72 788.65,183.27">
        <lane id="217919300#0_0" index="0" disallow="bicycle tram rail_urban rail rail_electric rail_fast ship" speed="27.78" length="200.00" shape="787.78,46.08 791.20,134.51 791.35,162.07 791.45,169.65 791.81,181.96"/>
        <lane id="217919300#0_1" index="1" disallow="bicycle tram rail_urban rail rail_electric rail_fast ship" speed="27.78" length="200.00" shape="784.58,46.20 788.00,134.58 788.15,162.09 788.25,169.72 788.61,182.05"/>
        <lane id="217919300#0_2" index="2" disallow="bicycle tram rail_urban rail rail_electric rail_fast ship" speed="27.78" length="200.00" shape="781.38,46.32 784.80,134.65 784.95,162.11 785.05,169.79 785.42,182.14"/>
        <param key="ref" value="N27"/>
    </edge>
    <edge id="217919300#1" from="J12" to="9675765167" priority="13" type="highway.trunk" spreadType="center" shape="788.65,183.27 791.02,187.34 794.32,191.41">
        <lane id="217919300#1_0" index="0" disallow="bicycle tram rail_urban rail rail_electric rail_fast ship" speed="27.78" length="2.57" shape="792.03,182.71 793.07,184.51"/>
        <lane id="217919300#1_1" index="1" disallow="bicycle tram rail_urban rail rail_electric rail_fast ship" speed="27.78" length="2.57" shape="789.26,184.32 790.56,186.55"/>
        <lane id="217919300#1_2" index="2" disallow="bicycle tram rail_urban rail rail_electric rail_fast ship" speed="27.78" length="2.57" shape="786.50,185.93 788.04,188.58"/>
        <param key="ref" value="N27"/>
    </edge>
    <edge id="217919302#1" from="J4" to="9675765169" priority="13" type="highway.trunk" spreadType="center" length="250.00" shape="1134.13,263.24 879.95,268.04 867.11,264.85">
        <lane id="217919302#1_0" index="0" disallow="pedestrian bicycle tram rail_urban rail rail_electric rail_fast ship" speed="27.78" length="250.00" shape="1134.19,266.44 879.59,271.25 875.80,270.31"/>
        <lane id="217919302#1_1" index="1" disallow="pedestrian bicycle tram rail_urban rail rail_electric rail_fast ship" speed="27.78" length="250.00" shape="1134.13,263.24 879.95,268.04 876.57,267.20"/>
        <lane id="217919302#1_2" index="2" disallow="pedestrian bicycle tram rail_urban rail rail_electric rail_fast ship" speed="27.78" length="250.00" shape="1134.07,260.04 880.31,264.83 877.34,264.09"/>
        <param key="ref" value="N27"/>
    </edge>
    <edge id="236028138#0" from="430669" to="J7" priority="13" type="highway.trunk" spreadType="center" shape="870.98,260.03 876.61,245.80 877.16,238.68 876.78,228.40 874.34,218.40 869.38,210.94">
        <lane id="236028138#0_0" index="0" disallow="bicycle tram rail_urban rail rail_electric rail_fast ship" speed="27.78" length="35.33" shape="873.58,243.47 873.96,238.62 873.59,228.84 871.36,219.70 866.84,212.90"/>
        <lane id="236028138#0_1" index="1" disallow="bicycle tram rail_urban rail rail_electric rail_fast ship" speed="27.78" length="35.33" shape="876.70,244.68 877.16,238.68 876.78,228.40 874.34,218.40 869.51,211.13"/>
        <lane id="236028138#0_2" index="2" disallow="bicycle tram rail_urban rail rail_electric rail_fast ship" speed="27.78" length="35.33" shape="879.81,245.89 880.36,238.74 879.97,227.96 877.32,217.10 872.17,209.36"/>
        <param key="ref" value="N27"/>
    </edge>
    <edge id="236028138#1" from="J7" to="3565841" priority="13" type="highway.trunk" spreadType="center">
        <lane id="236028138#1_0" index="0" disallow="bicycle tram rail_urban rail rail_electric rail_fast ship" speed="27.78" length="3.50" shape="866.52,212.39 864.72,209.39"/>
        <lane id="236028138#1_1" index="1" disallow="bicycle tram rail_urban rail rail_electric rail_fast ship" speed="27.78" length="3.50" shape="869.26,210.74 867.47,207.74"/>
        <lane id="236028138#1_2" index="2" disallow="bicycle tram rail_urban rail rail_electric rail_fast ship" speed="27.78" length="3.50" shape="872.01,209.10 870.21,206.10"/>
        <param key="ref" value="N27"/>
    </edge>